*************   S T A R T I N G   2 x 2.5   G E O S - C H E M   *************

===> Mode of operation         : GEOS-Chem "Classic"
===> GEOS-Chem version         : 12.1.1
===> Compiler                  : GNU Fortran compiler (aka gfortran)
===> Driven by meteorology     : GMAO GEOS-FP (on native 72-layer vertical grid)
===> ISORROPIA ATE package     : ON
===> Parallelization w/ OpenMP : ON
===> Binary punch diagnostics  : OFF
===> netCDF diagnostics        : ON
===> netCDF file compression   : SUPPORTED

===> SIMULATION START TIME: 2018/12/19 18:33 <===

===============================================================================
G E O S - C H E M   U S E R   I N P U T

READ_INPUT_FILE: Reading input.geos

SIMULATION MENU
---------------
Start time of run           : 20160701 000000
End time of run             : 20160801 000000
Run directory               : ./
Data Directory              : /home/ubuntu/ExtData/
CHEM_INPUTS directory       : /home/ubuntu/ExtData/CHEM_INPUTS/
Resolution-specific dir     : GEOS_2x2.5/
Is this a nested-grid sim?  :     F
Global offsets I0, J0       :     0    0

TIMESTEP MENU
---------------
Transport/Convection [sec]  :   600
Chemistry/Emissions  [sec]  :  1200

TRANSPORT MENU
--------------
Turn on transport?          :     T
Let TPCORE Fill negatives?  :     T
IORD, JORD, KORD for TPCORE?:     3    3    7

CONVECTION MENU
----------------
Turn on cloud convection?   :     T
Turn on PBL mixing?         :     T
Turn on non-local PBL?      :     T

EMISSIONS MENU
--------------
Turn on emissions?          :     T
HEMCO Configuration file    : HEMCO_Config.rc
Set day PBL BrO conc to 1ppt:     F
Use CH4 emissions inventory?:     F
Turn on surface BC for      : 
      --> methane?          :     F
      --> OCS?              :     T
      --> CFCs/HCFCs/halon? :     T
      --> chlorine species? :     T
      --> bromine species?  :     F
      --> N2O?              :     T
Set initial global MRs for  : 
      --> strat. H2O?       :     T
CFC emissions read for year :     0

AEROSOL MENU
------------
Online SULFATE AEROSOLS?    :     T
Metal catalyzed SO2 ox.?    :     T
Online CARBON AEROSOLS?     :     T
Brown Carbon Aerosol?       :     F
Online COMPLEX SOA?         :     F
Semivolatile POA?           :     F
Spatial & seasonal OM/OC?   :     F
Online DUST AEROSOLS?       :     T
Acid uptake on dust?        :     F
Online SEA SALT AEROSOLS?   :     T
Accum  SEA SALT radii [um]  :   0.01 -   0.50
Coarse SEA SALT radii [um]  :   0.50 -   8.00
MARINE ORGANIC AEROSOLS?    :     F
Settle strat. aerosols?     :     T
Online SOLID PSC aerosols?  :     T
Allow hom. NAT nucleation?  :     F
NAT supercooling requirement:   3.00K
Ice supersaturation req.    :  20.00K
Perform PSC het. chemistry? :     T
Use strat. aerosol OD?      :     T
BC Absorption Enhancement?  :     T
Hydrophilic BC AE factor    :   1.50
Hydrophobic BC AE factor    :   1.00

DEPOSITION MENU
---------------
Turn on dry deposition?     :     T
Dry dep over full PBL?      :     F
Turn on wet deposition?     :     T

CHEMISTRY MENU
--------------
Turn on chemistry?          :     T
Use linear. strat. chem?    :     T
 => Use Linoz for O3?       :     T
Enable UCX?                 :     T
Online strat. H2O?          :     T
Online ozone for FAST-JX?   :     T
Ozone from met for FAST-JX? :     T
TOMS/SBUV ozone for FAST-JX?:     F
GAMMA HO2                   : 0.20

NOTE ABOUT OVERHEAD O3 FOR FAST-JX:
 Online O3 from GEOS-Chem will be used
 to weight the O3 column within the
 chemistry grid and O3 from met or TOMS
 will be used outside the chemistry grid.

RADIATION MENU
--------------
AOD output wavelength (nm)  :   550.0
Turn on radiation?          :     F
Consider LW                 :     F
Consider SW                 :     F
Clear-sky/All-sky           :     F/    F
Radiation timestep [sec]    : 10800
Flux output selection       : 00000000010

OUTPUT MENU
-----------
              1111111111222222222233
     1234567890123456789012345678901
     -------------------------------
JAN--3000000000000000000000000000000
FEB--30000000000000000000000000000
MAR--3000000000000000000000000000000
APR--300000000000000000000000000000
MAY--3000000000000000000000000000000
JUN--300000000000000000000000000000
JUL--3000000000000000000000000000000
AUG--3000000000000000000000000000000
SEP--300000000000000000000000000000
OCT--3000000000000000000000000000000
NOV--300000000000000000000000000000
DEC--3000000000000000000000000000000

GAMAP MENU
---------------
GAMAP "diaginfo.dat"   file : diaginfo.dat
GAMAP "tracerinfo.dat" file : tracerinfo.dat

PLANEFLIGHT MENU
----------------
Turn on planeflight diag?   :     F
Flight track input file     : Planeflight.dat.YYYYMMDD
Output file name            : plane.log.YYYYMMDD

ND48 STATION TIMESERIES MENU
----------------------------
Turn on ND48 timeseries?    :     F
ND48 timeseries file name   : stations.YYYYMMDD
ND48 save frequency [sec]   :  3600
ND48 timeseries station   1 :   133   29   15    2

ND49 3-D INSTANTANEOUS TIMESERIES MENU
--------------------------------------
Turn on ND49 timeseries?    :     F
ND49 timeseries file name   : tsYYYYMMDD.bpch
ND49 timeseries tracers     :   94
ND49 save frequency [sec]   :  7200
ND49 longitude limits       :    70   30
ND49 latitude  limits       :    23   46
ND49 level     limits       :     1    1

ND50 3-D 24hr AVG TIMESERIES MENU
---------------------------------
Turn on ND50 timeseries?    :     F
ND50 timeseries file name   : ts_24h_avg.YYYYMMDD.bpch
Output as HDF?              :     F
ND50 timeseries tracers     :   82  83  84  85  86  87
ND50 longitude limits       :     1   72
ND50 latitude  limits       :     1   46
ND50 level     limits       :     1    1

ND51 MORNING OR AFTERNOON TIMESERIES MENU
-----------------------------------------
Turn on ND51 timeseries?    :     F
ND51 timeseries file name   : ts_satellite.YYYYMMDD.bpch
Output as HDF?              :     F
ND41 timeseries tracers     :   46 504 506
ND51 hour to write to disk  :   0.0
ND51 averaging period [GMT] :   9.0 11.0
ND51 longitude limits       :     1   72
ND51 latitude  limits       :     1   46
ND51 altitude  limits       :     1   40

ND51b MORNING OR AFTERNOON TIMESERIES MENU
-----------------------------------------
Turn on ND51b timeseries?    :     F
ND51b timeseries file name   : ts_13_15.NA.YYYYMMDD.h5
Output as HDF?               :     F
ND41 timeseries tracers      :   1  4 20 25 26 27 28 29 30 31 32 33 34 35 36 37 38 39 40 41 42 43 44 45 46 47 48 49 50 51 52 53 54 60 61 62 63 64 65 66 72 73 75 82 83 84 85 86 87 93 94 98 99
ND51b hour to write to disk  :   1.0
ND51b averaging period [GMT] :  13.0 15.0
ND51b longitude limits       :     1   72
ND51b latitude  limits       :     1   46
ND51b altitude  limits       :     1    1

ND63 SHIP TIMESERIES MENU
--------------------------------------
Turn on ND63 timeseries?    :     F
ND63 timeseries file name   : paranox_ts.YYYYMMDD.bpch
ND63 timeseries tracers     :   1
ND63 save frequency [sec]   :  7200
ND63 longitude limits       :    70   30
ND63 latitude  limits       :    23   46

BENCHMARK MENU
--------------
Save benchmark diag output?  :     T
File for initial species mass: Ox.mass.initial
File for final species mass  : Ox.mass.final

NESTED GRID MENU
----------------
Save TPCORE BC's at 4x5     :     F
Save TPCORE BC's at 2x25    :     F
Save BC's over North America:     F
Directory with NA BC's      : BC_2x25_NA/
Save BC's over Europe       :     F
Directory with EU BC's      : BC_2x25_EU/
Save BC's over China/SE Asia:     F
Directory with CH BC's      : BC_2x25_CH/
Save BC's over Asia         :     F
Directory with AS BC's      : BC_2x25_AS/
Save BC's over custom region:     F
Directory with custom BC's  : BC_2x25/
Timestep for BC's [sec]     : 10800
LL box of BC region         :     9   26
UR box of BC region         :    29   41
Nested grid window offsets  :     3    3    3    3

SET_TIMESTEPS: setting GEOS-Chem timesteps!
-------------------------------------------
Chemistry  Timestep [sec] :   1200
Convection Timestep [sec] :    600
Dynamics   Timestep [sec] :    600
Emission   Timestep [sec] :   1200
Unit Conv  Timestep [sec] :    600
Diagnostic Timestep [sec] :   1200
Radiation  Timestep [sec] :  10800
  
 ======================
 Contents of  CollList
  
 SpeciesConc
  

Registered variables contained within the State_Met object:
===============================================================================
 MET_LOCALSOLARTIME             | Local solar time     | xy    | hours
 MET_XCHLRNATIVE                | Average CHLR per Ols | xyz C | mg m-3
 MET_XLAINATIVE                 | Average LAI per Olso | xyz C | m2 m-2
 MET_LANDTYPEFRAC               | Olson fraction per l | xyz C | 1
 MET_MODISCHLR                  | Daily chlorophyll-a  | xy    | mg m-3
 MET_XCHLR                      | MODIS chlorophyll-a  | xyz C | mg m-3
 MET_MODISLAI                   | Daily LAI computed f | xy    | m2 m-2
 MET_XLAI                       | MODIS LAI for each O | xyz C | m2 m-2
 MET_IUSE                       | Fraction (per mil) o | xyz C | o/oo
 MET_ILAND                      | Olson land type indi | xyz C | 1
 MET_IREG                       | Number of Olson land | xy    | 1
 MET_TMPU2                      | Instantaneous temper | xyz C | K
 MET_TMPU1                      | Instantaneous temper | xyz C | K
 MET_SPHU2                      | Instantaneous specif | xyz C | g kg-1
 MET_SPHU1                      | Instantaneous specif | xyz C | g kg-1
 MET_REEVAPLS                   | Evaporation of large | xyz C | kg
 MET_REEVAPCN                   | Evaporation of conve | xyz C | kg kg-1 s-1
 MET_PFLLSAN                    | Downward flux of liq | xyz E | kg m-2 s-1
 MET_PFLCU                      | Downward flux of liq | xyz E | kg m-2 s-1
 MET_PFILSAN                    | Downwared flux of ic | xyz E | kg m-2 s-1
 MET_PFICU                      | Downward flux of ice | xyz E | kg m-2 s-1
 MET_V                          | North-south componen | xyz C | m s-1
 MET_U                          | East-west component  | xyz C | m s-1
 MET_TAUCLW                     | Optical depth of H2O | xyz C | 1
 MET_TAUCLI                     | Optical depth of ice | xyz C | 1
 MET_TV                         | Virtual temperature  | xyz C | K
 MET_THETA                      | Potential temperatur | xyz C | K
 MET_T                          | Temperature          | xyz C | K
 MET_SPHU                       | Specific humidity (w | xyz C | g kg-1
 MET_RH                         | Relative humidity    | xyz C | %
 MET_QL                         | Water mixing ratio ( | xyz C | kg kg-1
 MET_QI                         | Ice mixing ratio (w/ | xyz C | kg kg-1
 MET_PMIDDRY                    | Pressure (w/r/t dry  | xyz C | hPa
 MET_PMID                       | Pressure (w/r/t mois | xyz C | hPa
 MET_PEDGEDRY                   | Pressure (w/r/t dry  | xyz E | hPa
 MET_PEDGE                      | Pressure (w/r/t mois | xyz E | hPa
 MET_OPTD                       | Visible optical dept | xyz C | 1
 MET_OMEGA                      | Updraft velocity     | xyz C | Pa s-1
 MET_DTRAIN                     | Detrainment flux     | xyz C | kg m-2 s-1
 MET_DQRLSAN                    | Production rate of l | xyz C | kg kg-1 s-1
 MET_DQRCU                      | Production rate of c | xyz C | kg kg-1 s-1
 MET_DPDRYPREV                  | Previous State_Met%D | xyz C | hPa
 MET_DELPDRY                    | Delta-pressure acros | xyz C | hPa
 MET_DELP                       | Delta-pressure acros | xyz C | hPa
 MET_CMFMC                      | Cloud mass flux      | xyz E | kg m-2 s-1
 MET_CLDF                       | 3-D cloud fraction   | xyz C | 1
 MET_BXHEIGHT                   | Grid box height (w/r | xyz C | m
 MET_AVGW                       | Water vapor mixing r | xyz C | vol vol-1
 MET_AREAM2                     | Surface area of grid | xyz C | m2
 MET_AIRVOL                     | Volume of dry air in | xyz C | m3
 MET_AIRNUMDEN                  | Dry air density      | xyz C | m-3
 MET_MAIRDEN                    | Moist air density    | xyz C | kg m-3
 MET_AIRDEN                     | Dry air density      | xyz C | kg m-3
 MET_AD                         | Dry air mass         | xyz C | kg
 MET_SEAICE90                   | Sea ice coverage 90- | xy    | 1
 MET_SEAICE80                   | Sea ice coverage 80- | xy    | 1
 MET_SEAICE70                   | Sea ice coverage 70- | xy    | 1
 MET_SEAICE60                   | Sea ice coverage 60- | xy    | 1
 MET_SEAICE50                   | Sea ice coverage 50- | xy    | 1
 MET_SEAICE40                   | Sea ice coverage 40- | xy    | 1
 MET_SEAICE30                   | Sea ice coverage 30- | xy    | 1
 MET_SEAICE20                   | Sea ice coverage 20- | xy    | 1
 MET_SEAICE10                   | Sea ice coverage 10- | xy    | 1
 MET_SEAICE00                   | Sea ice coverage 00- | xy    | 1
 MET_PRECLSC                    | Large-scale precipit | xy    | kg m-2 s-1
 MET_PRECANV                    | Anvil precipitation  | xy    | kg m-2 s-1
 MET_FRSNO                      | Fraction of snow on  | xy    | 1
 MET_FRSEAICE                   | Fraction of sea ice  | xy    | 1
 MET_Z0                         | Surface roughness he | xy    | m
 MET_V10M                       | North-south wind at  | xy    | m s-1
 MET_UVALBEDO                   | Ultraviolet surface  | xy    | 1
 MET_USTAR                      | Friction velocity    | xy    | m s-1
 MET_U10M                       | East-west wind at 10 | xy    | m s-1
 MET_TSKIN                      | Surface skin tempera | xy    | K
 MET_TS                         | Surface temperature  | xy    | K
 MET_TROPP                      | Tropopause pressure  | xy    | hPa
 MET_TROPHT                     | Tropopause height    | xy    | km
 MET_TROPLEV                    | GEOS-Chem level wher | xy    | 1
 MET_TO3                        | Total overhead ozone | xy    | dobsons
 MET_SWGDN                      | Incident shortwave r | xy    | W m-2
 MET_SUNCOSMID                  | Cosine of solar zeni | xy    | 1
 MET_SUNCOS                     | Cosine of solar zeni | xy    | 1
 MET_SNOMAS                     | Snow mass            | xy    | kg m-2
 MET_SNODP                      | Snow depth           | xy    | m
 MET_SLP                        | Sea level pressure   | xy    | hPa
 MET_PSC2DRY                    | Dry interpolated sur | xy    | hPa
 MET_PS2DRY                     | Dry surface pressure | xy    | hPa
 MET_PS1DRY                     | Dry surface pressure | xy    | hPa
 MET_PSC2WET                    | Wet interpolated sur | xy    | hPa
 MET_PS2WET                     | Wet surface pressure | xy    | hPa
 MET_PS1WET                     | Wet surface pressure | xy    | hPa
 MET_PRECTOT                    | Total precipitation  | xy    | kg m-2 s-1
 MET_PRECCON                    | Convective precipita | xy    | kg m-2 s-1
 MET_PHIS                       | Surface geopotential | xy    | m2 s-1
 MET_PBLTOPL                    | Model layer of the p | xy    | layer
 MET_PBLH                       | Planetary boundary l | xy    | m
 MET_PARDF                      | Diffuse photosynthet | xy    | W m-2
 MET_PARDR                      | Direct photosyntheti | xy    | W m-2
 MET_LWI                        | Land-water-ice indic | xy    | 1
 MET_LAI                        | Leaf area index from | xy    | m2 m-2
 MET_HFLUX                      | Sensible heat flux   | xy    | W m-2
 MET_GWETTOP                    | Top soil moisture    | xy    | 1
 MET_GWETROOT                   | Root soil wetness    | xy    | 1
 MET_FROCEAN                    | Fraction of ocean    | xy    | 1
 MET_FRLANDIC                   | Fraction of land ice | xy    | 1
 MET_FRLAND                     | Fraction of land     | xy    | 1
 MET_FRLAKE                     | Fraction of lake     | xy    | 1
 MET_FRCLND                     | Olson land fraction  | xy    | 1
 MET_EFLUX                      | Latent heat flux     | xy    | W m-2
 MET_CLDTOPS                    | Maximum cloud top he | xy    | level
 MET_CLDFRC                     | Column cloud fractio | xy    | 1
 MET_CHEMGRIDLEV                | Highest level of the | xy    | 1
 MET_ALBD                       | Visible surface albe | xy    | 1

ADVECTED SPECIES MENU
------------------------------------------------
  # Species Name  g/mole
  1 NO             30.00
  2 O3             48.00
  3 PAN           121.00
  4 CO             28.00
  5 ALK4           58.12
  6 ISOP           68.12
  7 HNO3           63.00
  8 H2O2           34.00
  9 ACET           58.08
 10 MEK            72.11
 11 ALD2           44.05
 12 RCHO           58.00
 13 MVK            70.00
 14 MACR           70.00
 15 NPMN          147.00
 16 PPN           135.00
 17 R4N2          119.00
 18 PRPE           42.08
 19 C3H8           44.10
 20 CH2O           30.00
 21 C2H6           30.07
 22 N2O5          108.00
 23 HNO4           79.00
 24 MP             48.00
 25 DMS            62.00
 26 SO2            64.00
 27 SO4            96.00
 28 SO4s           31.40
 29 MSA            96.00
 30 NH3            17.00
 31 NH4            18.00
 32 NIT            62.00
 33 NITs           31.40
 34 BCPI           12.01
 35 OCPI           12.01
 36 BCPO           12.01
 37 OCPO           12.01
 38 DST1           29.00
 39 DST2           29.00
 40 DST3           29.00
 41 DST4           29.00
 42 SALA           31.40
 43 SALC           31.40
 44 Br2           160.00
 45 Br             80.00
 46 BrO            96.00
 47 HOBr           97.00
 48 HBr            81.00
 49 BrNO2         126.00
 50 BrNO3         142.00
 51 CHBr3         253.00
 52 CH2Br2        174.00
 53 CH3Br          95.00
 54 MPN            93.00
 55 ISOPND        147.00
 56 ISOPNB        147.00
 57 MOBA          114.00
 58 PROPNN        119.00
 59 HAC            74.00
 60 GLYC           60.00
 61 MVKN          149.00
 62 MACRN         149.00
 63 MAP            76.00
 64 NO2            46.00
 65 NO3            62.00
 66 HNO2           47.00
 67 BENZ           78.11
 68 TOLU           92.14
 69 XYLE          106.16
 70 MTPA          136.23
 71 LIMO          136.23
 72 MTPO          136.23
 73 SOAP          150.00
 74 SOAS          150.00
 75 EOH            46.07
 76 MGLY           72.00
 77 GLYX           58.00
 78 ACTA           60.00
 79 HPALD         116.00
 80 DHDN          226.00
 81 ETHLN         105.00
 82 HCOOH          46.00
 83 IEPOXA        118.00
 84 IEPOXB        118.00
 85 IEPOXD        118.00
 86 ISN1          147.00
 87 RIPA          118.00
 88 RIPB          118.00
 89 RIPD          118.00
 90 IMAE          102.00
 91 SOAIE         118.00
 92 SOAME         102.00
 93 SOAGX          58.00
 94 SOAMG          72.00
 95 LVOC          154.00
 96 LVOCOA        154.00
 97 ISN1OG        226.00
 98 ISN1OA        226.00
 99 MONITS        215.00
100 MONITU        215.00
101 HONIT         215.00
102 IONITA         14.00
103 MONITA         14.00
104 INDIOL        102.00
105 IPMN          147.00
106 HC187         187.00
107 N2O            44.00
108 OCS            60.00
109 CH4            16.00
110 BrCl          115.00
111 HCl            36.00
112 CCl4          152.00
113 CH3Cl          50.00
114 CH3CCl3       133.00
115 CFC113        187.00
116 CFC114        187.00
117 CFC115        187.00
118 HCFC123       117.00
119 HCFC141b      117.00
120 HCFC142b      117.00
121 CFC11         137.00
122 CFC12         121.00
123 HCFC22         86.00
124 H1211         165.00
125 H1301         149.00
126 H2402         260.00
127 Cl             35.00
128 ClO            51.00
129 HOCl           52.00
130 ClNO3          97.00
131 ClNO2          81.00
132 ClOO           67.00
133 OClO           67.00
134 Cl2            71.00
135 Cl2O2         103.00
136 H2O            18.00
137 BrSALA         80.00
138 BrSALC         80.00
139 CHCl3         119.00
140 CH2Cl2         85.00
141 CH3I          142.00
142 CH2I2         268.00
143 CH2ICl        167.00
144 CH2IBr        221.00
145 HOI           144.00
146 I2            254.00
147 IBr           207.00
148 ICl           162.00
149 I             127.00
150 IO            143.00
151 HI            128.00
152 OIO           159.00
153 INO           157.00
154 IONO          173.00
155 IONO2         189.00
156 I2O2          286.00
157 I2O3          302.00
158 I2O4          318.00
159 ISALA         127.00
160 ISALC         127.00
161 AERI          127.00
162 pFe            55.85

Registered variables contained within the State_Chm object:
===============================================================================
 CHEM_KHETISLAHOBRHBR           | Sticking coeeficient | xyz C | 1
 CHEM_KHETISLAHOBRHCL           | Sticking coeeficient | xyz C | 1
 CHEM_KHETISLAHOCLHBR           | Sticking coeeficient | xyz C | 1
 CHEM_KHETISLAHOCLHCL           | Sticking coeeficient | xyz C | 1
 CHEM_KHETISLABRNO3HCL          | Sticking coeeficient | xyz C | 1
 CHEM_KHETISLABRNO3H2O          | Sticking coeeficient | xyz C | 1
 CHEM_KHETISLACLNO3HBR          | Sticking coeeficient | xyz C | 1
 CHEM_KHETISLACLNO3HCL          | Sticking coeeficient | xyz C | 1
 CHEM_KHETISLACLNO3H2O          | Sticking coeeficient | xyz C | 1
 CHEM_KHETISLAN2O5HCL           | Sticking coeeficient | xyz C | 1
 CHEM_KHETISLAN2O5H2O           | Sticking coeeficient | xyz C | 1
 CHEM_STATEPSC                  | Polar stratospheric  | xyz C | count
 CHEM_KPPHVALUE                 | H-value for Rosenbro | xyz C | 1
 CHEM_SO2AFTERCHEM              | SO2 after sulfate ch | xyz C | v/v
 CHEM_H2O2AFTERCHEM             | H2O2 after sulfate c | xyz C | v/v
 CHEM_WETDEPNITROGEN            | Wet deposited nitrog | xy    | molec/cm2/s
 CHEM_DRYDEPNITROGEN            | Dry deposited nitrog | xy    | molec/cm2/s
 CHEM_FUPDATEHOBR               | Correction factor fo | xyz C | 1
 CHEM_SO3AQ                     | Cloud sulfite concen | xyz C | mol/L
 CHEM_HSO3AQ                    | Cloud bisulfite conc | xyz C | mol/L
 CHEM_SSALKCOARSE               | Sea salt alkalinity, | xyz C | 1
 CHEM_SSALKACCUM                | Sea salt alkalinity, | xyz C | 1
 CHEM_PHCLOUD                   | Cloud pH             | xyz C | 1
 CHEM_BISULSAV                  | ISORROPIA Bisulfate  | xyz C | mol/L
 CHEM_ACIDPURSAV                | ISORROPIA ACIDPUR    | xyz C | mol/L
 CHEM_NARATSAV                  | ISORROPIA Na+ concen | xyz C | mol/L
 CHEM_SULRATSAV                 | ISORROPIA sulfate co | xyz C | mol/L
 CHEM_WATERSAV                  | ISORROPIA aerosol wa | xyz C | ug m-3
 CHEM_HPLUSSAV                  | ISORROPIA H+ concent | xyz C | mol/L
 CHEM_PHSAV                     | ISORROPIA aerosol pH | xyz C | 1
 CHEM_WETAERORADIICEI           | Wet aerosol radius f | xyz C | cm
 CHEM_WETAERORADIBGSULF         | Wet aerosol radius f | xyz C | cm
 CHEM_WETAERORADISSC            | Wet aerosol radius f | xyz C | cm
 CHEM_WETAERORADISSA            | Wet aerosol radius f | xyz C | cm
 CHEM_WETAERORADIOC             | Wet aerosol radius f | xyz C | cm
 CHEM_WETAERORADIBC             | Wet aerosol radius f | xyz C | cm
 CHEM_WETAERORADISULF           | Wet aerosol radius f | xyz C | cm
 CHEM_WETAERORADIMDUST7         | Wet aerosol radius f | xyz C | cm
 CHEM_WETAERORADIMDUST6         | Wet aerosol radius f | xyz C | cm
 CHEM_WETAERORADIMDUST5         | Wet aerosol radius f | xyz C | cm
 CHEM_WETAERORADIMDUST4         | Wet aerosol radius f | xyz C | cm
 CHEM_WETAERORADIMDUST3         | Wet aerosol radius f | xyz C | cm
 CHEM_WETAERORADIMDUST2         | Wet aerosol radius f | xyz C | cm
 CHEM_WETAERORADIMDUST1         | Wet aerosol radius f | xyz C | cm
 CHEM_WETAEROAREAICEI           | Wet aerosol area for | xyz C | cm2/cm3
 CHEM_WETAEROAREABGSULF         | Wet aerosol area for | xyz C | cm2/cm3
 CHEM_WETAEROAREASSC            | Wet aerosol area for | xyz C | cm2/cm3
 CHEM_WETAEROAREASSA            | Wet aerosol area for | xyz C | cm2/cm3
 CHEM_WETAEROAREAOC             | Wet aerosol area for | xyz C | cm2/cm3
 CHEM_WETAEROAREABC             | Wet aerosol area for | xyz C | cm2/cm3
 CHEM_WETAEROAREASULF           | Wet aerosol area for | xyz C | cm2/cm3
 CHEM_WETAEROAREAMDUST7         | Wet aerosol area for | xyz C | cm2/cm3
 CHEM_WETAEROAREAMDUST6         | Wet aerosol area for | xyz C | cm2/cm3
 CHEM_WETAEROAREAMDUST5         | Wet aerosol area for | xyz C | cm2/cm3
 CHEM_WETAEROAREAMDUST4         | Wet aerosol area for | xyz C | cm2/cm3
 CHEM_WETAEROAREAMDUST3         | Wet aerosol area for | xyz C | cm2/cm3
 CHEM_WETAEROAREAMDUST2         | Wet aerosol area for | xyz C | cm2/cm3
 CHEM_WETAEROAREAMDUST1         | Wet aerosol area for | xyz C | cm2/cm3
 CHEM_AERORADIICEI              | Dry aerosol radius f | xyz C | cm
 CHEM_AERORADIBGSULF            | Dry aerosol radius f | xyz C | cm
 CHEM_AERORADISSC               | Dry aerosol radius f | xyz C | cm
 CHEM_AERORADISSA               | Dry aerosol radius f | xyz C | cm
 CHEM_AERORADIOC                | Dry aerosol radius f | xyz C | cm
 CHEM_AERORADIBC                | Dry aerosol radius f | xyz C | cm
 CHEM_AERORADISULF              | Dry aerosol radius f | xyz C | cm
 CHEM_AERORADIMDUST7            | Dry aerosol radius f | xyz C | cm
 CHEM_AERORADIMDUST6            | Dry aerosol radius f | xyz C | cm
 CHEM_AERORADIMDUST5            | Dry aerosol radius f | xyz C | cm
 CHEM_AERORADIMDUST4            | Dry aerosol radius f | xyz C | cm
 CHEM_AERORADIMDUST3            | Dry aerosol radius f | xyz C | cm
 CHEM_AERORADIMDUST2            | Dry aerosol radius f | xyz C | cm
 CHEM_AERORADIMDUST1            | Dry aerosol radius f | xyz C | cm
 CHEM_AEROAREAICEI              | Dry aerosol area for | xyz C | cm2/cm3
 CHEM_AEROAREABGSULF            | Dry aerosol area for | xyz C | cm2/cm3
 CHEM_AEROAREASSC               | Dry aerosol area for | xyz C | cm2/cm3
 CHEM_AEROAREASSA               | Dry aerosol area for | xyz C | cm2/cm3
 CHEM_AEROAREAOC                | Dry aerosol area for | xyz C | cm2/cm3
 CHEM_AEROAREABC                | Dry aerosol area for | xyz C | cm2/cm3
 CHEM_AEROAREASULF              | Dry aerosol area for | xyz C | cm2/cm3
 CHEM_AEROAREAMDUST7            | Dry aerosol area for | xyz C | cm2/cm3
 CHEM_AEROAREAMDUST6            | Dry aerosol area for | xyz C | cm2/cm3
 CHEM_AEROAREAMDUST5            | Dry aerosol area for | xyz C | cm2/cm3
 CHEM_AEROAREAMDUST4            | Dry aerosol area for | xyz C | cm2/cm3
 CHEM_AEROAREAMDUST3            | Dry aerosol area for | xyz C | cm2/cm3
 CHEM_AEROAREAMDUST2            | Dry aerosol area for | xyz C | cm2/cm3
 CHEM_AEROAREAMDUST1            | Dry aerosol area for | xyz C | cm2/cm3
 CHEM_SPECIES_RCOOH             | Concentration for sp | xyz C | varies
 CHEM_SPECIES_O2                | Concentration for sp | xyz C | varies
 CHEM_SPECIES_N2                | Concentration for sp | xyz C | varies
 CHEM_SPECIES_MOH               | Concentration for sp | xyz C | varies
 CHEM_SPECIES_H2                | Concentration for sp | xyz C | varies
 CHEM_SPECIES_OH                | Concentration for sp | xyz C | varies
 CHEM_SPECIES_HO2               | Concentration for sp | xyz C | varies
 CHEM_SPECIES_O                 | Concentration for sp | xyz C | varies
 CHEM_SPECIES_O1D               | Concentration for sp | xyz C | varies
 CHEM_SPECIES_MO2               | Concentration for sp | xyz C | varies
 CHEM_SPECIES_MCO3              | Concentration for sp | xyz C | varies
 CHEM_SPECIES_MRO2              | Concentration for sp | xyz C | varies
 CHEM_SPECIES_R4O2              | Concentration for sp | xyz C | varies
 CHEM_SPECIES_INO2              | Concentration for sp | xyz C | varies
 CHEM_SPECIES_ETO2              | Concentration for sp | xyz C | varies
 CHEM_SPECIES_RIO2              | Concentration for sp | xyz C | varies
 CHEM_SPECIES_HC5               | Concentration for sp | xyz C | varies
 CHEM_SPECIES_CH2OO             | Concentration for sp | xyz C | varies
 CHEM_SPECIES_VRO2              | Concentration for sp | xyz C | varies
 CHEM_SPECIES_NMAO3             | Concentration for sp | xyz C | varies
 CHEM_SPECIES_HC5OO             | Concentration for sp | xyz C | varies
 CHEM_SPECIES_PIO2              | Concentration for sp | xyz C | varies
 CHEM_SPECIES_ISOPNBO2          | Concentration for sp | xyz C | varies
 CHEM_SPECIES_KO2               | Concentration for sp | xyz C | varies
 CHEM_SPECIES_OLNN              | Concentration for sp | xyz C | varies
 CHEM_SPECIES_OLND              | Concentration for sp | xyz C | varies
 CHEM_SPECIES_LIMO2             | Concentration for sp | xyz C | varies
 CHEM_SPECIES_RCO3              | Concentration for sp | xyz C | varies
 CHEM_SPECIES_ATO2              | Concentration for sp | xyz C | varies
 CHEM_SPECIES_MAOPO2            | Concentration for sp | xyz C | varies
 CHEM_SPECIES_R4N1              | Concentration for sp | xyz C | varies
 CHEM_SPECIES_MACROO            | Concentration for sp | xyz C | varies
 CHEM_SPECIES_B3O2              | Concentration for sp | xyz C | varies
 CHEM_SPECIES_ISOPNDO2          | Concentration for sp | xyz C | varies
 CHEM_SPECIES_PO2               | Concentration for sp | xyz C | varies
 CHEM_SPECIES_ISNOOA            | Concentration for sp | xyz C | varies
 CHEM_SPECIES_MAN2              | Concentration for sp | xyz C | varies
 CHEM_SPECIES_A3O2              | Concentration for sp | xyz C | varies
 CHEM_SPECIES_MGLOO             | Concentration for sp | xyz C | varies
 CHEM_SPECIES_PRN1              | Concentration for sp | xyz C | varies
 CHEM_SPECIES_MGLYOO            | Concentration for sp | xyz C | varies
 CHEM_SPECIES_IEPOXOO           | Concentration for sp | xyz C | varies
 CHEM_SPECIES_CH3CHOO           | Concentration for sp | xyz C | varies
 CHEM_SPECIES_GAOO              | Concentration for sp | xyz C | varies
 CHEM_SPECIES_ISNOOB            | Concentration for sp | xyz C | varies
 CHEM_SPECIES_MVKOO             | Concentration for sp | xyz C | varies
 CHEM_SPECIES_ISNOHOO           | Concentration for sp | xyz C | varies
 CHEM_SPECIES_ROH               | Concentration for sp | xyz C | varies
 CHEM_SPECIES_MACRNO2           | Concentration for sp | xyz C | varies
 CHEM_SPECIES_H                 | Concentration for sp | xyz C | varies
 CHEM_SPECIES_DIBOO             | Concentration for sp | xyz C | varies
 CHEM_SPECIES_MOBAOO            | Concentration for sp | xyz C | varies
 CHEM_SPECIES_INPN              | Concentration for sp | xyz C | varies
 CHEM_SPECIES_MRP               | Concentration for sp | xyz C | varies
 CHEM_SPECIES_MAOP              | Concentration for sp | xyz C | varies
 CHEM_SPECIES_ISNP              | Concentration for sp | xyz C | varies
 CHEM_SPECIES_DHMOB             | Concentration for sp | xyz C | varies
 CHEM_SPECIES_ATOOH             | Concentration for sp | xyz C | varies
 CHEM_SPECIES_VRP               | Concentration for sp | xyz C | varies
 CHEM_SPECIES_HPC52O2           | Concentration for sp | xyz C | varies
 CHEM_SPECIES_IAP               | Concentration for sp | xyz C | varies
 CHEM_SPECIES_DHPCARP           | Concentration for sp | xyz C | varies
 CHEM_SPECIES_R4P               | Concentration for sp | xyz C | varies
 CHEM_SPECIES_PIP               | Concentration for sp | xyz C | varies
 CHEM_SPECIES_PRPN              | Concentration for sp | xyz C | varies
 CHEM_SPECIES_PP                | Concentration for sp | xyz C | varies
 CHEM_SPECIES_RP                | Concentration for sp | xyz C | varies
 CHEM_SPECIES_RB3P              | Concentration for sp | xyz C | varies
 CHEM_SPECIES_RA3P              | Concentration for sp | xyz C | varies
 CHEM_SPECIES_ETP               | Concentration for sp | xyz C | varies
 CHEM_SPECIES_IMAO3             | Concentration for sp | xyz C | varies
 CHEM_SPECIES_XRO2              | Concentration for sp | xyz C | varies
 CHEM_SPECIES_N                 | Concentration for sp | xyz C | varies
 CHEM_SPECIES_BRO2              | Concentration for sp | xyz C | varies
 CHEM_SPECIES_TRO2              | Concentration for sp | xyz C | varies
 CHEM_SPECIES_PMNN              | Concentration for sp | xyz C | varies
 CHEM_SPECIES_DHDC              | Concentration for sp | xyz C | varies
 CHEM_SPECIES_PH2O2             | Concentration for sp | xyz C | varies
 CHEM_SPECIES_LCH4              | Concentration for sp | xyz C | varies
 CHEM_SPECIES_PSO4              | Concentration for sp | xyz C | varies
 CHEM_SPECIES_LCO               | Concentration for sp | xyz C | varies
 CHEM_SPECIES_PCO               | Concentration for sp | xyz C | varies
 CHEM_SPECIES_LOX               | Concentration for sp | xyz C | varies
 CHEM_SPECIES_POX               | Concentration for sp | xyz C | varies
 CHEM_SPECIES_SO4H2             | Concentration for sp | xyz C | varies
 CHEM_SPECIES_SO4H1             | Concentration for sp | xyz C | varies
 CHEM_SPECIES_PYAC              | Concentration for sp | xyz C | varies
 CHEM_SPECIES_LXRO2N            | Concentration for sp | xyz C | varies
 CHEM_SPECIES_LXRO2H            | Concentration for sp | xyz C | varies
 CHEM_SPECIES_LTRO2N            | Concentration for sp | xyz C | varies
 CHEM_SPECIES_LTRO2H            | Concentration for sp | xyz C | varies
 CHEM_SPECIES_LISOPNO3          | Concentration for sp | xyz C | varies
 CHEM_SPECIES_LISOPOH           | Concentration for sp | xyz C | varies
 CHEM_SPECIES_LBRO2N            | Concentration for sp | xyz C | varies
 CHEM_SPECIES_LBRO2H            | Concentration for sp | xyz C | varies
 CHEM_SPECIES_CO2               | Concentration for sp | xyz C | varies
 CHEM_SPECIES_PFE               | Concentration for sp | xyz C | varies
 CHEM_SPECIES_AERI              | Concentration for sp | xyz C | varies
 CHEM_SPECIES_ISALC             | Concentration for sp | xyz C | varies
 CHEM_SPECIES_ISALA             | Concentration for sp | xyz C | varies
 CHEM_SPECIES_I2O4              | Concentration for sp | xyz C | varies
 CHEM_SPECIES_I2O3              | Concentration for sp | xyz C | varies
 CHEM_SPECIES_I2O2              | Concentration for sp | xyz C | varies
 CHEM_SPECIES_IONO2             | Concentration for sp | xyz C | varies
 CHEM_SPECIES_IONO              | Concentration for sp | xyz C | varies
 CHEM_SPECIES_INO               | Concentration for sp | xyz C | varies
 CHEM_SPECIES_OIO               | Concentration for sp | xyz C | varies
 CHEM_SPECIES_HI                | Concentration for sp | xyz C | varies
 CHEM_SPECIES_IO                | Concentration for sp | xyz C | varies
 CHEM_SPECIES_I                 | Concentration for sp | xyz C | varies
 CHEM_SPECIES_ICL               | Concentration for sp | xyz C | varies
 CHEM_SPECIES_IBR               | Concentration for sp | xyz C | varies
 CHEM_SPECIES_I2                | Concentration for sp | xyz C | varies
 CHEM_SPECIES_HOI               | Concentration for sp | xyz C | varies
 CHEM_SPECIES_CH2IBR            | Concentration for sp | xyz C | varies
 CHEM_SPECIES_CH2ICL            | Concentration for sp | xyz C | varies
 CHEM_SPECIES_CH2I2             | Concentration for sp | xyz C | varies
 CHEM_SPECIES_CH3I              | Concentration for sp | xyz C | varies
 CHEM_SPECIES_CH2CL2            | Concentration for sp | xyz C | varies
 CHEM_SPECIES_CHCL3             | Concentration for sp | xyz C | varies
 CHEM_SPECIES_BRSALC            | Concentration for sp | xyz C | varies
 CHEM_SPECIES_BRSALA            | Concentration for sp | xyz C | varies
 CHEM_SPECIES_H2O               | Concentration for sp | xyz C | varies
 CHEM_SPECIES_CL2O2             | Concentration for sp | xyz C | varies
 CHEM_SPECIES_CL2               | Concentration for sp | xyz C | varies
 CHEM_SPECIES_OCLO              | Concentration for sp | xyz C | varies
 CHEM_SPECIES_CLOO              | Concentration for sp | xyz C | varies
 CHEM_SPECIES_CLNO2             | Concentration for sp | xyz C | varies
 CHEM_SPECIES_CLNO3             | Concentration for sp | xyz C | varies
 CHEM_SPECIES_HOCL              | Concentration for sp | xyz C | varies
 CHEM_SPECIES_CLO               | Concentration for sp | xyz C | varies
 CHEM_SPECIES_CL                | Concentration for sp | xyz C | varies
 CHEM_SPECIES_H2402             | Concentration for sp | xyz C | varies
 CHEM_SPECIES_H1301             | Concentration for sp | xyz C | varies
 CHEM_SPECIES_H1211             | Concentration for sp | xyz C | varies
 CHEM_SPECIES_HCFC22            | Concentration for sp | xyz C | varies
 CHEM_SPECIES_CFC12             | Concentration for sp | xyz C | varies
 CHEM_SPECIES_CFC11             | Concentration for sp | xyz C | varies
 CHEM_SPECIES_HCFC142B          | Concentration for sp | xyz C | varies
 CHEM_SPECIES_HCFC141B          | Concentration for sp | xyz C | varies
 CHEM_SPECIES_HCFC123           | Concentration for sp | xyz C | varies
 CHEM_SPECIES_CFC115            | Concentration for sp | xyz C | varies
 CHEM_SPECIES_CFC114            | Concentration for sp | xyz C | varies
 CHEM_SPECIES_CFC113            | Concentration for sp | xyz C | varies
 CHEM_SPECIES_CH3CCL3           | Concentration for sp | xyz C | varies
 CHEM_SPECIES_CH3CL             | Concentration for sp | xyz C | varies
 CHEM_SPECIES_CCL4              | Concentration for sp | xyz C | varies
 CHEM_SPECIES_HCL               | Concentration for sp | xyz C | varies
 CHEM_SPECIES_BRCL              | Concentration for sp | xyz C | varies
 CHEM_SPECIES_CH4               | Concentration for sp | xyz C | varies
 CHEM_SPECIES_OCS               | Concentration for sp | xyz C | varies
 CHEM_SPECIES_N2O               | Concentration for sp | xyz C | varies
 CHEM_SPECIES_HC187             | Concentration for sp | xyz C | varies
 CHEM_SPECIES_IPMN              | Concentration for sp | xyz C | varies
 CHEM_SPECIES_INDIOL            | Concentration for sp | xyz C | varies
 CHEM_SPECIES_MONITA            | Concentration for sp | xyz C | varies
 CHEM_SPECIES_IONITA            | Concentration for sp | xyz C | varies
 CHEM_SPECIES_HONIT             | Concentration for sp | xyz C | varies
 CHEM_SPECIES_MONITU            | Concentration for sp | xyz C | varies
 CHEM_SPECIES_MONITS            | Concentration for sp | xyz C | varies
 CHEM_SPECIES_ISN1OA            | Concentration for sp | xyz C | varies
 CHEM_SPECIES_ISN1OG            | Concentration for sp | xyz C | varies
 CHEM_SPECIES_LVOCOA            | Concentration for sp | xyz C | varies
 CHEM_SPECIES_LVOC              | Concentration for sp | xyz C | varies
 CHEM_SPECIES_SOAMG             | Concentration for sp | xyz C | varies
 CHEM_SPECIES_SOAGX             | Concentration for sp | xyz C | varies
 CHEM_SPECIES_SOAME             | Concentration for sp | xyz C | varies
 CHEM_SPECIES_SOAIE             | Concentration for sp | xyz C | varies
 CHEM_SPECIES_IMAE              | Concentration for sp | xyz C | varies
 CHEM_SPECIES_RIPD              | Concentration for sp | xyz C | varies
 CHEM_SPECIES_RIPB              | Concentration for sp | xyz C | varies
 CHEM_SPECIES_RIPA              | Concentration for sp | xyz C | varies
 CHEM_SPECIES_ISN1              | Concentration for sp | xyz C | varies
 CHEM_SPECIES_IEPOXD            | Concentration for sp | xyz C | varies
 CHEM_SPECIES_IEPOXB            | Concentration for sp | xyz C | varies
 CHEM_SPECIES_IEPOXA            | Concentration for sp | xyz C | varies
 CHEM_SPECIES_HCOOH             | Concentration for sp | xyz C | varies
 CHEM_SPECIES_ETHLN             | Concentration for sp | xyz C | varies
 CHEM_SPECIES_DHDN              | Concentration for sp | xyz C | varies
 CHEM_SPECIES_HPALD             | Concentration for sp | xyz C | varies
 CHEM_SPECIES_ACTA              | Concentration for sp | xyz C | varies
 CHEM_SPECIES_GLYX              | Concentration for sp | xyz C | varies
 CHEM_SPECIES_MGLY              | Concentration for sp | xyz C | varies
 CHEM_SPECIES_EOH               | Concentration for sp | xyz C | varies
 CHEM_SPECIES_SOAS              | Concentration for sp | xyz C | varies
 CHEM_SPECIES_SOAP              | Concentration for sp | xyz C | varies
 CHEM_SPECIES_MTPO              | Concentration for sp | xyz C | varies
 CHEM_SPECIES_LIMO              | Concentration for sp | xyz C | varies
 CHEM_SPECIES_MTPA              | Concentration for sp | xyz C | varies
 CHEM_SPECIES_XYLE              | Concentration for sp | xyz C | varies
 CHEM_SPECIES_TOLU              | Concentration for sp | xyz C | varies
 CHEM_SPECIES_BENZ              | Concentration for sp | xyz C | varies
 CHEM_SPECIES_HNO2              | Concentration for sp | xyz C | varies
 CHEM_SPECIES_NO3               | Concentration for sp | xyz C | varies
 CHEM_SPECIES_NO2               | Concentration for sp | xyz C | varies
 CHEM_SPECIES_MAP               | Concentration for sp | xyz C | varies
 CHEM_SPECIES_MACRN             | Concentration for sp | xyz C | varies
 CHEM_SPECIES_MVKN              | Concentration for sp | xyz C | varies
 CHEM_SPECIES_GLYC              | Concentration for sp | xyz C | varies
 CHEM_SPECIES_HAC               | Concentration for sp | xyz C | varies
 CHEM_SPECIES_PROPNN            | Concentration for sp | xyz C | varies
 CHEM_SPECIES_MOBA              | Concentration for sp | xyz C | varies
 CHEM_SPECIES_ISOPNB            | Concentration for sp | xyz C | varies
 CHEM_SPECIES_ISOPND            | Concentration for sp | xyz C | varies
 CHEM_SPECIES_MPN               | Concentration for sp | xyz C | varies
 CHEM_SPECIES_CH3BR             | Concentration for sp | xyz C | varies
 CHEM_SPECIES_CH2BR2            | Concentration for sp | xyz C | varies
 CHEM_SPECIES_CHBR3             | Concentration for sp | xyz C | varies
 CHEM_SPECIES_BRNO3             | Concentration for sp | xyz C | varies
 CHEM_SPECIES_BRNO2             | Concentration for sp | xyz C | varies
 CHEM_SPECIES_HBR               | Concentration for sp | xyz C | varies
 CHEM_SPECIES_HOBR              | Concentration for sp | xyz C | varies
 CHEM_SPECIES_BRO               | Concentration for sp | xyz C | varies
 CHEM_SPECIES_BR                | Concentration for sp | xyz C | varies
 CHEM_SPECIES_BR2               | Concentration for sp | xyz C | varies
 CHEM_SPECIES_SALC              | Concentration for sp | xyz C | varies
 CHEM_SPECIES_SALA              | Concentration for sp | xyz C | varies
 CHEM_SPECIES_DST4              | Concentration for sp | xyz C | varies
 CHEM_SPECIES_DST3              | Concentration for sp | xyz C | varies
 CHEM_SPECIES_DST2              | Concentration for sp | xyz C | varies
 CHEM_SPECIES_DST1              | Concentration for sp | xyz C | varies
 CHEM_SPECIES_OCPO              | Concentration for sp | xyz C | varies
 CHEM_SPECIES_BCPO              | Concentration for sp | xyz C | varies
 CHEM_SPECIES_OCPI              | Concentration for sp | xyz C | varies
 CHEM_SPECIES_BCPI              | Concentration for sp | xyz C | varies
 CHEM_SPECIES_NITS              | Concentration for sp | xyz C | varies
 CHEM_SPECIES_NIT               | Concentration for sp | xyz C | varies
 CHEM_SPECIES_NH4               | Concentration for sp | xyz C | varies
 CHEM_SPECIES_NH3               | Concentration for sp | xyz C | varies
 CHEM_SPECIES_MSA               | Concentration for sp | xyz C | varies
 CHEM_SPECIES_SO4S              | Concentration for sp | xyz C | varies
 CHEM_SPECIES_SO4               | Concentration for sp | xyz C | varies
 CHEM_SPECIES_SO2               | Concentration for sp | xyz C | varies
 CHEM_SPECIES_DMS               | Concentration for sp | xyz C | varies
 CHEM_SPECIES_MP                | Concentration for sp | xyz C | varies
 CHEM_SPECIES_HNO4              | Concentration for sp | xyz C | varies
 CHEM_SPECIES_N2O5              | Concentration for sp | xyz C | varies
 CHEM_SPECIES_C2H6              | Concentration for sp | xyz C | varies
 CHEM_SPECIES_CH2O              | Concentration for sp | xyz C | varies
 CHEM_SPECIES_C3H8              | Concentration for sp | xyz C | varies
 CHEM_SPECIES_PRPE              | Concentration for sp | xyz C | varies
 CHEM_SPECIES_R4N2              | Concentration for sp | xyz C | varies
 CHEM_SPECIES_PPN               | Concentration for sp | xyz C | varies
 CHEM_SPECIES_NPMN              | Concentration for sp | xyz C | varies
 CHEM_SPECIES_MACR              | Concentration for sp | xyz C | varies
 CHEM_SPECIES_MVK               | Concentration for sp | xyz C | varies
 CHEM_SPECIES_RCHO              | Concentration for sp | xyz C | varies
 CHEM_SPECIES_ALD2              | Concentration for sp | xyz C | varies
 CHEM_SPECIES_MEK               | Concentration for sp | xyz C | varies
 CHEM_SPECIES_ACET              | Concentration for sp | xyz C | varies
 CHEM_SPECIES_H2O2              | Concentration for sp | xyz C | varies
 CHEM_SPECIES_HNO3              | Concentration for sp | xyz C | varies
 CHEM_SPECIES_ISOP              | Concentration for sp | xyz C | varies
 CHEM_SPECIES_ALK4              | Concentration for sp | xyz C | varies
 CHEM_SPECIES_CO                | Concentration for sp | xyz C | varies
 CHEM_SPECIES_PAN               | Concentration for sp | xyz C | varies
 CHEM_SPECIES_O3                | Concentration for sp | xyz C | varies
 CHEM_SPECIES_NO                | Concentration for sp | xyz C | varies
 ###############################################################################

Allocating the following fields of the State_Diag object:
===============================================================================
 State_Diag%SpeciesConc           is registered as: SpeciesConc

Registered variables contained within the State_Diag object:
===============================================================================
 SPECIESCONC_RCOOH              | Dry mixing ratio of  | xyz C | mol mol-1 dry
 SPECIESCONC_O2                 | Dry mixing ratio of  | xyz C | mol mol-1 dry
 SPECIESCONC_N2                 | Dry mixing ratio of  | xyz C | mol mol-1 dry
 SPECIESCONC_MOH                | Dry mixing ratio of  | xyz C | mol mol-1 dry
 SPECIESCONC_H2                 | Dry mixing ratio of  | xyz C | mol mol-1 dry
 SPECIESCONC_OH                 | Dry mixing ratio of  | xyz C | mol mol-1 dry
 SPECIESCONC_HO2                | Dry mixing ratio of  | xyz C | mol mol-1 dry
 SPECIESCONC_O                  | Dry mixing ratio of  | xyz C | mol mol-1 dry
 SPECIESCONC_O1D                | Dry mixing ratio of  | xyz C | mol mol-1 dry
 SPECIESCONC_MO2                | Dry mixing ratio of  | xyz C | mol mol-1 dry
 SPECIESCONC_MCO3               | Dry mixing ratio of  | xyz C | mol mol-1 dry
 SPECIESCONC_MRO2               | Dry mixing ratio of  | xyz C | mol mol-1 dry
 SPECIESCONC_R4O2               | Dry mixing ratio of  | xyz C | mol mol-1 dry
 SPECIESCONC_INO2               | Dry mixing ratio of  | xyz C | mol mol-1 dry
 SPECIESCONC_ETO2               | Dry mixing ratio of  | xyz C | mol mol-1 dry
 SPECIESCONC_RIO2               | Dry mixing ratio of  | xyz C | mol mol-1 dry
 SPECIESCONC_HC5                | Dry mixing ratio of  | xyz C | mol mol-1 dry
 SPECIESCONC_CH2OO              | Dry mixing ratio of  | xyz C | mol mol-1 dry
 SPECIESCONC_VRO2               | Dry mixing ratio of  | xyz C | mol mol-1 dry
 SPECIESCONC_NMAO3              | Dry mixing ratio of  | xyz C | mol mol-1 dry
 SPECIESCONC_HC5OO              | Dry mixing ratio of  | xyz C | mol mol-1 dry
 SPECIESCONC_PIO2               | Dry mixing ratio of  | xyz C | mol mol-1 dry
 SPECIESCONC_ISOPNBO2           | Dry mixing ratio of  | xyz C | mol mol-1 dry
 SPECIESCONC_KO2                | Dry mixing ratio of  | xyz C | mol mol-1 dry
 SPECIESCONC_OLNN               | Dry mixing ratio of  | xyz C | mol mol-1 dry
 SPECIESCONC_OLND               | Dry mixing ratio of  | xyz C | mol mol-1 dry
 SPECIESCONC_LIMO2              | Dry mixing ratio of  | xyz C | mol mol-1 dry
 SPECIESCONC_RCO3               | Dry mixing ratio of  | xyz C | mol mol-1 dry
 SPECIESCONC_ATO2               | Dry mixing ratio of  | xyz C | mol mol-1 dry
 SPECIESCONC_MAOPO2             | Dry mixing ratio of  | xyz C | mol mol-1 dry
 SPECIESCONC_R4N1               | Dry mixing ratio of  | xyz C | mol mol-1 dry
 SPECIESCONC_MACROO             | Dry mixing ratio of  | xyz C | mol mol-1 dry
 SPECIESCONC_B3O2               | Dry mixing ratio of  | xyz C | mol mol-1 dry
 SPECIESCONC_ISOPNDO2           | Dry mixing ratio of  | xyz C | mol mol-1 dry
 SPECIESCONC_PO2                | Dry mixing ratio of  | xyz C | mol mol-1 dry
 SPECIESCONC_ISNOOA             | Dry mixing ratio of  | xyz C | mol mol-1 dry
 SPECIESCONC_MAN2               | Dry mixing ratio of  | xyz C | mol mol-1 dry
 SPECIESCONC_A3O2               | Dry mixing ratio of  | xyz C | mol mol-1 dry
 SPECIESCONC_MGLOO              | Dry mixing ratio of  | xyz C | mol mol-1 dry
 SPECIESCONC_PRN1               | Dry mixing ratio of  | xyz C | mol mol-1 dry
 SPECIESCONC_MGLYOO             | Dry mixing ratio of  | xyz C | mol mol-1 dry
 SPECIESCONC_IEPOXOO            | Dry mixing ratio of  | xyz C | mol mol-1 dry
 SPECIESCONC_CH3CHOO            | Dry mixing ratio of  | xyz C | mol mol-1 dry
 SPECIESCONC_GAOO               | Dry mixing ratio of  | xyz C | mol mol-1 dry
 SPECIESCONC_ISNOOB             | Dry mixing ratio of  | xyz C | mol mol-1 dry
 SPECIESCONC_MVKOO              | Dry mixing ratio of  | xyz C | mol mol-1 dry
 SPECIESCONC_ISNOHOO            | Dry mixing ratio of  | xyz C | mol mol-1 dry
 SPECIESCONC_ROH                | Dry mixing ratio of  | xyz C | mol mol-1 dry
 SPECIESCONC_MACRNO2            | Dry mixing ratio of  | xyz C | mol mol-1 dry
 SPECIESCONC_H                  | Dry mixing ratio of  | xyz C | mol mol-1 dry
 SPECIESCONC_DIBOO              | Dry mixing ratio of  | xyz C | mol mol-1 dry
 SPECIESCONC_MOBAOO             | Dry mixing ratio of  | xyz C | mol mol-1 dry
 SPECIESCONC_INPN               | Dry mixing ratio of  | xyz C | mol mol-1 dry
 SPECIESCONC_MRP                | Dry mixing ratio of  | xyz C | mol mol-1 dry
 SPECIESCONC_MAOP               | Dry mixing ratio of  | xyz C | mol mol-1 dry
 SPECIESCONC_ISNP               | Dry mixing ratio of  | xyz C | mol mol-1 dry
 SPECIESCONC_DHMOB              | Dry mixing ratio of  | xyz C | mol mol-1 dry
 SPECIESCONC_ATOOH              | Dry mixing ratio of  | xyz C | mol mol-1 dry
 SPECIESCONC_VRP                | Dry mixing ratio of  | xyz C | mol mol-1 dry
 SPECIESCONC_HPC52O2            | Dry mixing ratio of  | xyz C | mol mol-1 dry
 SPECIESCONC_IAP                | Dry mixing ratio of  | xyz C | mol mol-1 dry
 SPECIESCONC_DHPCARP            | Dry mixing ratio of  | xyz C | mol mol-1 dry
 SPECIESCONC_R4P                | Dry mixing ratio of  | xyz C | mol mol-1 dry
 SPECIESCONC_PIP                | Dry mixing ratio of  | xyz C | mol mol-1 dry
 SPECIESCONC_PRPN               | Dry mixing ratio of  | xyz C | mol mol-1 dry
 SPECIESCONC_PP                 | Dry mixing ratio of  | xyz C | mol mol-1 dry
 SPECIESCONC_RP                 | Dry mixing ratio of  | xyz C | mol mol-1 dry
 SPECIESCONC_RB3P               | Dry mixing ratio of  | xyz C | mol mol-1 dry
 SPECIESCONC_RA3P               | Dry mixing ratio of  | xyz C | mol mol-1 dry
 SPECIESCONC_ETP                | Dry mixing ratio of  | xyz C | mol mol-1 dry
 SPECIESCONC_IMAO3              | Dry mixing ratio of  | xyz C | mol mol-1 dry
 SPECIESCONC_XRO2               | Dry mixing ratio of  | xyz C | mol mol-1 dry
 SPECIESCONC_N                  | Dry mixing ratio of  | xyz C | mol mol-1 dry
 SPECIESCONC_BRO2               | Dry mixing ratio of  | xyz C | mol mol-1 dry
 SPECIESCONC_TRO2               | Dry mixing ratio of  | xyz C | mol mol-1 dry
 SPECIESCONC_PMNN               | Dry mixing ratio of  | xyz C | mol mol-1 dry
 SPECIESCONC_DHDC               | Dry mixing ratio of  | xyz C | mol mol-1 dry
 SPECIESCONC_PH2O2              | Dry mixing ratio of  | xyz C | mol mol-1 dry
 SPECIESCONC_LCH4               | Dry mixing ratio of  | xyz C | mol mol-1 dry
 SPECIESCONC_PSO4               | Dry mixing ratio of  | xyz C | mol mol-1 dry
 SPECIESCONC_LCO                | Dry mixing ratio of  | xyz C | mol mol-1 dry
 SPECIESCONC_PCO                | Dry mixing ratio of  | xyz C | mol mol-1 dry
 SPECIESCONC_LOX                | Dry mixing ratio of  | xyz C | mol mol-1 dry
 SPECIESCONC_POX                | Dry mixing ratio of  | xyz C | mol mol-1 dry
 SPECIESCONC_SO4H2              | Dry mixing ratio of  | xyz C | mol mol-1 dry
 SPECIESCONC_SO4H1              | Dry mixing ratio of  | xyz C | mol mol-1 dry
 SPECIESCONC_PYAC               | Dry mixing ratio of  | xyz C | mol mol-1 dry
 SPECIESCONC_LXRO2N             | Dry mixing ratio of  | xyz C | mol mol-1 dry
 SPECIESCONC_LXRO2H             | Dry mixing ratio of  | xyz C | mol mol-1 dry
 SPECIESCONC_LTRO2N             | Dry mixing ratio of  | xyz C | mol mol-1 dry
 SPECIESCONC_LTRO2H             | Dry mixing ratio of  | xyz C | mol mol-1 dry
 SPECIESCONC_LISOPNO3           | Dry mixing ratio of  | xyz C | mol mol-1 dry
 SPECIESCONC_LISOPOH            | Dry mixing ratio of  | xyz C | mol mol-1 dry
 SPECIESCONC_LBRO2N             | Dry mixing ratio of  | xyz C | mol mol-1 dry
 SPECIESCONC_LBRO2H             | Dry mixing ratio of  | xyz C | mol mol-1 dry
 SPECIESCONC_CO2                | Dry mixing ratio of  | xyz C | mol mol-1 dry
 SPECIESCONC_PFE                | Dry mixing ratio of  | xyz C | mol mol-1 dry
 SPECIESCONC_AERI               | Dry mixing ratio of  | xyz C | mol mol-1 dry
 SPECIESCONC_ISALC              | Dry mixing ratio of  | xyz C | mol mol-1 dry
 SPECIESCONC_ISALA              | Dry mixing ratio of  | xyz C | mol mol-1 dry
 SPECIESCONC_I2O4               | Dry mixing ratio of  | xyz C | mol mol-1 dry
 SPECIESCONC_I2O3               | Dry mixing ratio of  | xyz C | mol mol-1 dry
 SPECIESCONC_I2O2               | Dry mixing ratio of  | xyz C | mol mol-1 dry
 SPECIESCONC_IONO2              | Dry mixing ratio of  | xyz C | mol mol-1 dry
 SPECIESCONC_IONO               | Dry mixing ratio of  | xyz C | mol mol-1 dry
 SPECIESCONC_INO                | Dry mixing ratio of  | xyz C | mol mol-1 dry
 SPECIESCONC_OIO                | Dry mixing ratio of  | xyz C | mol mol-1 dry
 SPECIESCONC_HI                 | Dry mixing ratio of  | xyz C | mol mol-1 dry
 SPECIESCONC_IO                 | Dry mixing ratio of  | xyz C | mol mol-1 dry
 SPECIESCONC_I                  | Dry mixing ratio of  | xyz C | mol mol-1 dry
 SPECIESCONC_ICL                | Dry mixing ratio of  | xyz C | mol mol-1 dry
 SPECIESCONC_IBR                | Dry mixing ratio of  | xyz C | mol mol-1 dry
 SPECIESCONC_I2                 | Dry mixing ratio of  | xyz C | mol mol-1 dry
 SPECIESCONC_HOI                | Dry mixing ratio of  | xyz C | mol mol-1 dry
 SPECIESCONC_CH2IBR             | Dry mixing ratio of  | xyz C | mol mol-1 dry
 SPECIESCONC_CH2ICL             | Dry mixing ratio of  | xyz C | mol mol-1 dry
 SPECIESCONC_CH2I2              | Dry mixing ratio of  | xyz C | mol mol-1 dry
 SPECIESCONC_CH3I               | Dry mixing ratio of  | xyz C | mol mol-1 dry
 SPECIESCONC_CH2CL2             | Dry mixing ratio of  | xyz C | mol mol-1 dry
 SPECIESCONC_CHCL3              | Dry mixing ratio of  | xyz C | mol mol-1 dry
 SPECIESCONC_BRSALC             | Dry mixing ratio of  | xyz C | mol mol-1 dry
 SPECIESCONC_BRSALA             | Dry mixing ratio of  | xyz C | mol mol-1 dry
 SPECIESCONC_H2O                | Dry mixing ratio of  | xyz C | mol mol-1 dry
 SPECIESCONC_CL2O2              | Dry mixing ratio of  | xyz C | mol mol-1 dry
 SPECIESCONC_CL2                | Dry mixing ratio of  | xyz C | mol mol-1 dry
 SPECIESCONC_OCLO               | Dry mixing ratio of  | xyz C | mol mol-1 dry
 SPECIESCONC_CLOO               | Dry mixing ratio of  | xyz C | mol mol-1 dry
 SPECIESCONC_CLNO2              | Dry mixing ratio of  | xyz C | mol mol-1 dry
 SPECIESCONC_CLNO3              | Dry mixing ratio of  | xyz C | mol mol-1 dry
 SPECIESCONC_HOCL               | Dry mixing ratio of  | xyz C | mol mol-1 dry
 SPECIESCONC_CLO                | Dry mixing ratio of  | xyz C | mol mol-1 dry
 SPECIESCONC_CL                 | Dry mixing ratio of  | xyz C | mol mol-1 dry
 SPECIESCONC_H2402              | Dry mixing ratio of  | xyz C | mol mol-1 dry
 SPECIESCONC_H1301              | Dry mixing ratio of  | xyz C | mol mol-1 dry
 SPECIESCONC_H1211              | Dry mixing ratio of  | xyz C | mol mol-1 dry
 SPECIESCONC_HCFC22             | Dry mixing ratio of  | xyz C | mol mol-1 dry
 SPECIESCONC_CFC12              | Dry mixing ratio of  | xyz C | mol mol-1 dry
 SPECIESCONC_CFC11              | Dry mixing ratio of  | xyz C | mol mol-1 dry
 SPECIESCONC_HCFC142B           | Dry mixing ratio of  | xyz C | mol mol-1 dry
 SPECIESCONC_HCFC141B           | Dry mixing ratio of  | xyz C | mol mol-1 dry
 SPECIESCONC_HCFC123            | Dry mixing ratio of  | xyz C | mol mol-1 dry
 SPECIESCONC_CFC115             | Dry mixing ratio of  | xyz C | mol mol-1 dry
 SPECIESCONC_CFC114             | Dry mixing ratio of  | xyz C | mol mol-1 dry
 SPECIESCONC_CFC113             | Dry mixing ratio of  | xyz C | mol mol-1 dry
 SPECIESCONC_CH3CCL3            | Dry mixing ratio of  | xyz C | mol mol-1 dry
 SPECIESCONC_CH3CL              | Dry mixing ratio of  | xyz C | mol mol-1 dry
 SPECIESCONC_CCL4               | Dry mixing ratio of  | xyz C | mol mol-1 dry
 SPECIESCONC_HCL                | Dry mixing ratio of  | xyz C | mol mol-1 dry
 SPECIESCONC_BRCL               | Dry mixing ratio of  | xyz C | mol mol-1 dry
 SPECIESCONC_CH4                | Dry mixing ratio of  | xyz C | mol mol-1 dry
 SPECIESCONC_OCS                | Dry mixing ratio of  | xyz C | mol mol-1 dry
 SPECIESCONC_N2O                | Dry mixing ratio of  | xyz C | mol mol-1 dry
 SPECIESCONC_HC187              | Dry mixing ratio of  | xyz C | mol mol-1 dry
 SPECIESCONC_IPMN               | Dry mixing ratio of  | xyz C | mol mol-1 dry
 SPECIESCONC_INDIOL             | Dry mixing ratio of  | xyz C | mol mol-1 dry
 SPECIESCONC_MONITA             | Dry mixing ratio of  | xyz C | mol mol-1 dry
 SPECIESCONC_IONITA             | Dry mixing ratio of  | xyz C | mol mol-1 dry
 SPECIESCONC_HONIT              | Dry mixing ratio of  | xyz C | mol mol-1 dry
 SPECIESCONC_MONITU             | Dry mixing ratio of  | xyz C | mol mol-1 dry
 SPECIESCONC_MONITS             | Dry mixing ratio of  | xyz C | mol mol-1 dry
 SPECIESCONC_ISN1OA             | Dry mixing ratio of  | xyz C | mol mol-1 dry
 SPECIESCONC_ISN1OG             | Dry mixing ratio of  | xyz C | mol mol-1 dry
 SPECIESCONC_LVOCOA             | Dry mixing ratio of  | xyz C | mol mol-1 dry
 SPECIESCONC_LVOC               | Dry mixing ratio of  | xyz C | mol mol-1 dry
 SPECIESCONC_SOAMG              | Dry mixing ratio of  | xyz C | mol mol-1 dry
 SPECIESCONC_SOAGX              | Dry mixing ratio of  | xyz C | mol mol-1 dry
 SPECIESCONC_SOAME              | Dry mixing ratio of  | xyz C | mol mol-1 dry
 SPECIESCONC_SOAIE              | Dry mixing ratio of  | xyz C | mol mol-1 dry
 SPECIESCONC_IMAE               | Dry mixing ratio of  | xyz C | mol mol-1 dry
 SPECIESCONC_RIPD               | Dry mixing ratio of  | xyz C | mol mol-1 dry
 SPECIESCONC_RIPB               | Dry mixing ratio of  | xyz C | mol mol-1 dry
 SPECIESCONC_RIPA               | Dry mixing ratio of  | xyz C | mol mol-1 dry
 SPECIESCONC_ISN1               | Dry mixing ratio of  | xyz C | mol mol-1 dry
 SPECIESCONC_IEPOXD             | Dry mixing ratio of  | xyz C | mol mol-1 dry
 SPECIESCONC_IEPOXB             | Dry mixing ratio of  | xyz C | mol mol-1 dry
 SPECIESCONC_IEPOXA             | Dry mixing ratio of  | xyz C | mol mol-1 dry
 SPECIESCONC_HCOOH              | Dry mixing ratio of  | xyz C | mol mol-1 dry
 SPECIESCONC_ETHLN              | Dry mixing ratio of  | xyz C | mol mol-1 dry
 SPECIESCONC_DHDN               | Dry mixing ratio of  | xyz C | mol mol-1 dry
 SPECIESCONC_HPALD              | Dry mixing ratio of  | xyz C | mol mol-1 dry
 SPECIESCONC_ACTA               | Dry mixing ratio of  | xyz C | mol mol-1 dry
 SPECIESCONC_GLYX               | Dry mixing ratio of  | xyz C | mol mol-1 dry
 SPECIESCONC_MGLY               | Dry mixing ratio of  | xyz C | mol mol-1 dry
 SPECIESCONC_EOH                | Dry mixing ratio of  | xyz C | mol mol-1 dry
 SPECIESCONC_SOAS               | Dry mixing ratio of  | xyz C | mol mol-1 dry
 SPECIESCONC_SOAP               | Dry mixing ratio of  | xyz C | mol mol-1 dry
 SPECIESCONC_MTPO               | Dry mixing ratio of  | xyz C | mol mol-1 dry
 SPECIESCONC_LIMO               | Dry mixing ratio of  | xyz C | mol mol-1 dry
 SPECIESCONC_MTPA               | Dry mixing ratio of  | xyz C | mol mol-1 dry
 SPECIESCONC_XYLE               | Dry mixing ratio of  | xyz C | mol mol-1 dry
 SPECIESCONC_TOLU               | Dry mixing ratio of  | xyz C | mol mol-1 dry
 SPECIESCONC_BENZ               | Dry mixing ratio of  | xyz C | mol mol-1 dry
 SPECIESCONC_HNO2               | Dry mixing ratio of  | xyz C | mol mol-1 dry
 SPECIESCONC_NO3                | Dry mixing ratio of  | xyz C | mol mol-1 dry
 SPECIESCONC_NO2                | Dry mixing ratio of  | xyz C | mol mol-1 dry
 SPECIESCONC_MAP                | Dry mixing ratio of  | xyz C | mol mol-1 dry
 SPECIESCONC_MACRN              | Dry mixing ratio of  | xyz C | mol mol-1 dry
 SPECIESCONC_MVKN               | Dry mixing ratio of  | xyz C | mol mol-1 dry
 SPECIESCONC_GLYC               | Dry mixing ratio of  | xyz C | mol mol-1 dry
 SPECIESCONC_HAC                | Dry mixing ratio of  | xyz C | mol mol-1 dry
 SPECIESCONC_PROPNN             | Dry mixing ratio of  | xyz C | mol mol-1 dry
 SPECIESCONC_MOBA               | Dry mixing ratio of  | xyz C | mol mol-1 dry
 SPECIESCONC_ISOPNB             | Dry mixing ratio of  | xyz C | mol mol-1 dry
 SPECIESCONC_ISOPND             | Dry mixing ratio of  | xyz C | mol mol-1 dry
 SPECIESCONC_MPN                | Dry mixing ratio of  | xyz C | mol mol-1 dry
 SPECIESCONC_CH3BR              | Dry mixing ratio of  | xyz C | mol mol-1 dry
 SPECIESCONC_CH2BR2             | Dry mixing ratio of  | xyz C | mol mol-1 dry
 SPECIESCONC_CHBR3              | Dry mixing ratio of  | xyz C | mol mol-1 dry
 SPECIESCONC_BRNO3              | Dry mixing ratio of  | xyz C | mol mol-1 dry
 SPECIESCONC_BRNO2              | Dry mixing ratio of  | xyz C | mol mol-1 dry
 SPECIESCONC_HBR                | Dry mixing ratio of  | xyz C | mol mol-1 dry
 SPECIESCONC_HOBR               | Dry mixing ratio of  | xyz C | mol mol-1 dry
 SPECIESCONC_BRO                | Dry mixing ratio of  | xyz C | mol mol-1 dry
 SPECIESCONC_BR                 | Dry mixing ratio of  | xyz C | mol mol-1 dry
 SPECIESCONC_BR2                | Dry mixing ratio of  | xyz C | mol mol-1 dry
 SPECIESCONC_SALC               | Dry mixing ratio of  | xyz C | mol mol-1 dry
 SPECIESCONC_SALA               | Dry mixing ratio of  | xyz C | mol mol-1 dry
 SPECIESCONC_DST4               | Dry mixing ratio of  | xyz C | mol mol-1 dry
 SPECIESCONC_DST3               | Dry mixing ratio of  | xyz C | mol mol-1 dry
 SPECIESCONC_DST2               | Dry mixing ratio of  | xyz C | mol mol-1 dry
 SPECIESCONC_DST1               | Dry mixing ratio of  | xyz C | mol mol-1 dry
 SPECIESCONC_OCPO               | Dry mixing ratio of  | xyz C | mol mol-1 dry
 SPECIESCONC_BCPO               | Dry mixing ratio of  | xyz C | mol mol-1 dry
 SPECIESCONC_OCPI               | Dry mixing ratio of  | xyz C | mol mol-1 dry
 SPECIESCONC_BCPI               | Dry mixing ratio of  | xyz C | mol mol-1 dry
 SPECIESCONC_NITS               | Dry mixing ratio of  | xyz C | mol mol-1 dry
 SPECIESCONC_NIT                | Dry mixing ratio of  | xyz C | mol mol-1 dry
 SPECIESCONC_NH4                | Dry mixing ratio of  | xyz C | mol mol-1 dry
 SPECIESCONC_NH3                | Dry mixing ratio of  | xyz C | mol mol-1 dry
 SPECIESCONC_MSA                | Dry mixing ratio of  | xyz C | mol mol-1 dry
 SPECIESCONC_SO4S               | Dry mixing ratio of  | xyz C | mol mol-1 dry
 SPECIESCONC_SO4                | Dry mixing ratio of  | xyz C | mol mol-1 dry
 SPECIESCONC_SO2                | Dry mixing ratio of  | xyz C | mol mol-1 dry
 SPECIESCONC_DMS                | Dry mixing ratio of  | xyz C | mol mol-1 dry
 SPECIESCONC_MP                 | Dry mixing ratio of  | xyz C | mol mol-1 dry
 SPECIESCONC_HNO4               | Dry mixing ratio of  | xyz C | mol mol-1 dry
 SPECIESCONC_N2O5               | Dry mixing ratio of  | xyz C | mol mol-1 dry
 SPECIESCONC_C2H6               | Dry mixing ratio of  | xyz C | mol mol-1 dry
 SPECIESCONC_CH2O               | Dry mixing ratio of  | xyz C | mol mol-1 dry
 SPECIESCONC_C3H8               | Dry mixing ratio of  | xyz C | mol mol-1 dry
 SPECIESCONC_PRPE               | Dry mixing ratio of  | xyz C | mol mol-1 dry
 SPECIESCONC_R4N2               | Dry mixing ratio of  | xyz C | mol mol-1 dry
 SPECIESCONC_PPN                | Dry mixing ratio of  | xyz C | mol mol-1 dry
 SPECIESCONC_NPMN               | Dry mixing ratio of  | xyz C | mol mol-1 dry
 SPECIESCONC_MACR               | Dry mixing ratio of  | xyz C | mol mol-1 dry
 SPECIESCONC_MVK                | Dry mixing ratio of  | xyz C | mol mol-1 dry
 SPECIESCONC_RCHO               | Dry mixing ratio of  | xyz C | mol mol-1 dry
 SPECIESCONC_ALD2               | Dry mixing ratio of  | xyz C | mol mol-1 dry
 SPECIESCONC_MEK                | Dry mixing ratio of  | xyz C | mol mol-1 dry
 SPECIESCONC_ACET               | Dry mixing ratio of  | xyz C | mol mol-1 dry
 SPECIESCONC_H2O2               | Dry mixing ratio of  | xyz C | mol mol-1 dry
 SPECIESCONC_HNO3               | Dry mixing ratio of  | xyz C | mol mol-1 dry
 SPECIESCONC_ISOP               | Dry mixing ratio of  | xyz C | mol mol-1 dry
 SPECIESCONC_ALK4               | Dry mixing ratio of  | xyz C | mol mol-1 dry
 SPECIESCONC_CO                 | Dry mixing ratio of  | xyz C | mol mol-1 dry
 SPECIESCONC_PAN                | Dry mixing ratio of  | xyz C | mol mol-1 dry
 SPECIESCONC_O3                 | Dry mixing ratio of  | xyz C | mol mol-1 dry
 SPECIESCONC_NO                 | Dry mixing ratio of  | xyz C | mol mol-1 dry
Nested-Grid X-offset [boxes]:   0
Nested-Grid Y-offset [boxes]:   0

Grid box longitude centers [degrees]: 
-180.000 -177.500 -175.000 -172.500 -170.000 -167.500 -165.000 -162.500
-160.000 -157.500 -155.000 -152.500 -150.000 -147.500 -145.000 -142.500
-140.000 -137.500 -135.000 -132.500 -130.000 -127.500 -125.000 -122.500
-120.000 -117.500 -115.000 -112.500 -110.000 -107.500 -105.000 -102.500
-100.000  -97.500  -95.000  -92.500  -90.000  -87.500  -85.000  -82.500
 -80.000  -77.500  -75.000  -72.500  -70.000  -67.500  -65.000  -62.500
 -60.000  -57.500  -55.000  -52.500  -50.000  -47.500  -45.000  -42.500
 -40.000  -37.500  -35.000  -32.500  -30.000  -27.500  -25.000  -22.500
 -20.000  -17.500  -15.000  -12.500  -10.000   -7.500   -5.000   -2.500
   0.000    2.500    5.000    7.500   10.000   12.500   15.000   17.500
  20.000   22.500   25.000   27.500   30.000   32.500   35.000   37.500
  40.000   42.500   45.000   47.500   50.000   52.500   55.000   57.500
  60.000   62.500   65.000   67.500   70.000   72.500   75.000   77.500
  80.000   82.500   85.000   87.500   90.000   92.500   95.000   97.500
 100.000  102.500  105.000  107.500  110.000  112.500  115.000  117.500
 120.000  122.500  125.000  127.500  130.000  132.500  135.000  137.500
 140.000  142.500  145.000  147.500  150.000  152.500  155.000  157.500
 160.000  162.500  165.000  167.500  170.000  172.500  175.000  177.500

Grid box longitude edges [degrees]: 
-181.250 -178.750 -176.250 -173.750 -171.250 -168.750 -166.250 -163.750
-161.250 -158.750 -156.250 -153.750 -151.250 -148.750 -146.250 -143.750
-141.250 -138.750 -136.250 -133.750 -131.250 -128.750 -126.250 -123.750
-121.250 -118.750 -116.250 -113.750 -111.250 -108.750 -106.250 -103.750
-101.250  -98.750  -96.250  -93.750  -91.250  -88.750  -86.250  -83.750
 -81.250  -78.750  -76.250  -73.750  -71.250  -68.750  -66.250  -63.750
 -61.250  -58.750  -56.250  -53.750  -51.250  -48.750  -46.250  -43.750
 -41.250  -38.750  -36.250  -33.750  -31.250  -28.750  -26.250  -23.750
 -21.250  -18.750  -16.250  -13.750  -11.250   -8.750   -6.250   -3.750
  -1.250    1.250    3.750    6.250    8.750   11.250   13.750   16.250
  18.750   21.250   23.750   26.250   28.750   31.250   33.750   36.250
  38.750   41.250   43.750   46.250   48.750   51.250   53.750   56.250
  58.750   61.250   63.750   66.250   68.750   71.250   73.750   76.250
  78.750   81.250   83.750   86.250   88.750   91.250   93.750   96.250
  98.750  101.250  103.750  106.250  108.750  111.250  113.750  116.250
 118.750  121.250  123.750  126.250  128.750  131.250  133.750  136.250
 138.750  141.250  143.750  146.250  148.750  151.250  153.750  156.250
 158.750  161.250  163.750  166.250  168.750  171.250  173.750  176.250
 178.750

Grid box latitude centers [degrees]: 
 -89.500  -88.000  -86.000  -84.000  -82.000  -80.000  -78.000  -76.000
 -74.000  -72.000  -70.000  -68.000  -66.000  -64.000  -62.000  -60.000
 -58.000  -56.000  -54.000  -52.000  -50.000  -48.000  -46.000  -44.000
 -42.000  -40.000  -38.000  -36.000  -34.000  -32.000  -30.000  -28.000
 -26.000  -24.000  -22.000  -20.000  -18.000  -16.000  -14.000  -12.000
 -10.000   -8.000   -6.000   -4.000   -2.000    0.000    2.000    4.000
   6.000    8.000   10.000   12.000   14.000   16.000   18.000   20.000
  22.000   24.000   26.000   28.000   30.000   32.000   34.000   36.000
  38.000   40.000   42.000   44.000   46.000   48.000   50.000   52.000
  54.000   56.000   58.000   60.000   62.000   64.000   66.000   68.000
  70.000   72.000   74.000   76.000   78.000   80.000   82.000   84.000
  86.000   88.000   89.500

Grid box latitude edges [degrees]: 
 -90.000  -89.000  -87.000  -85.000  -83.000  -81.000  -79.000  -77.000
 -75.000  -73.000  -71.000  -69.000  -67.000  -65.000  -63.000  -61.000
 -59.000  -57.000  -55.000  -53.000  -51.000  -49.000  -47.000  -45.000
 -43.000  -41.000  -39.000  -37.000  -35.000  -33.000  -31.000  -29.000
 -27.000  -25.000  -23.000  -21.000  -19.000  -17.000  -15.000  -13.000
 -11.000   -9.000   -7.000   -5.000   -3.000   -1.000    1.000    3.000
   5.000    7.000    9.000   11.000   13.000   15.000   17.000   19.000
  21.000   23.000   25.000   27.000   29.000   31.000   33.000   35.000
  37.000   39.000   41.000   43.000   45.000   47.000   49.000   51.000
  53.000   55.000   57.000   59.000   61.000   63.000   65.000   67.000
  69.000   71.000   73.000   75.000   77.000   79.000   81.000   83.000
  85.000   87.000   89.000   90.000

SIN( grid box latitude edges )
  -1.000   -1.000   -0.999   -0.996   -0.993   -0.988   -0.982   -0.974
  -0.966   -0.956   -0.946   -0.934   -0.921   -0.906   -0.891   -0.875
  -0.857   -0.839   -0.819   -0.799   -0.777   -0.755   -0.731   -0.707
  -0.682   -0.656   -0.629   -0.602   -0.574   -0.545   -0.515   -0.485
  -0.454   -0.423   -0.391   -0.358   -0.326   -0.292   -0.259   -0.225
  -0.191   -0.156   -0.122   -0.087   -0.052   -0.017    0.017    0.052
   0.087    0.122    0.156    0.191    0.225    0.259    0.292    0.326
   0.358    0.391    0.423    0.454    0.485    0.515    0.545    0.574
   0.602    0.629    0.656    0.682    0.707    0.731    0.755    0.777
   0.799    0.819    0.839    0.857    0.875    0.891    0.906    0.921
   0.934    0.946    0.956    0.966    0.974    0.982    0.988    0.993
   0.996    0.999    1.000    1.000

INIT_DRYDEP: List of dry deposition species:

  #   Name      Species DEPVEL Henry's    React.   Molec.   Aerosol?
                Number Index  Law Const  Factor   Weight   (T or F)
----------------------------------------------------------------------
  1   O3           2     1     1.0E-02    1.000    0.048     F
  2   PAN          3     2     3.6E+00    1.000    0.121     F
  3   HNO3         7     3     1.0E+14    0.000    0.063     F
  4   H2O2         8     4     5.0E+07    1.000    0.034     F
  5   ACET         9     5     1.0E+05    1.000    0.058     F
  6   ALD2        11     6     1.1E+01    1.000    0.044     F
  7   MVK         13     7     4.4E+01    1.000    0.070     F
  8   MACR        14     8     6.5E+00    1.000    0.070     F
  9   NPMN        15     9     3.6E+00    1.000    0.121     F
 10   PPN         16    10     3.6E+00    1.000    0.121     F
 11   R4N2        17    11     1.7E+04    1.000    0.121     F
 12   CH2O        20    12     3.0E+03    1.000    0.030     F
 13   N2O5        22    13     1.0E+14    0.000    0.063     F
 14   SO2         26    14     1.0E+05    0.000    0.064     F
 15   SO4         27    15     0.0E+00    0.000    0.096     T
 16   SO4S        28    16     0.0E+00    0.000    0.031     T
 17   MSA         29    17     0.0E+00    0.000    0.096     T
 18   NH3         30    18     2.0E+04    0.000    0.017     F
 19   NH4         31    19     0.0E+00    0.000    0.018     T
 20   NIT         32    20     0.0E+00    0.000    0.062     T
 21   NITS        33    21     0.0E+00    0.000    0.031     T
 22   BCPI        34    22     0.0E+00    0.000    0.012     T
 23   OCPI        35    23     0.0E+00    0.000    0.012     T
 24   BCPO        36    24     0.0E+00    0.000    0.012     T
 25   OCPO        37    25     0.0E+00    0.000    0.012     T
 26   DST1        38    26     0.0E+00    0.000    0.029     T
 27   DST2        39    27     0.0E+00    0.000    0.029     T
 28   DST3        40    28     0.0E+00    0.000    0.029     T
 29   DST4        41    29     0.0E+00    0.000    0.029     T
 30   SALA        42    30     0.0E+00    0.000    0.031     T
 31   SALC        43    31     0.0E+00    0.000    0.031     T
 32   Br2         44    32     7.6E-01    0.000    0.160     F
 33   HOBr        47    33     6.1E+03    0.000    0.097     F
 34   HBr         48    34     7.1E+15    0.000    0.081     F
 35   BrNO3       50    35     1.0E+20    0.000    0.142     F
 36   ISOPND      55    36     2.0E+06    1.000    0.147     F
 37   ISOPNB      56    37     2.0E+06    1.000    0.147     F
 38   PROPNN      58    38     5.0E+05    1.000    0.119     F
 39   HAC         59    39     1.4E+06    1.000    0.074     F
 40   GLYC        60    40     4.1E+04    1.000    0.060     F
 41   MVKN        61    41     2.0E+06    1.000    0.149     F
 42   MACRN       62    42     2.0E+06    1.000    0.149     F
 43   MAP         63    43     8.4E+02    1.000    0.076     F
 44   NO2         64    44     1.0E-02    0.100    0.046     F
 45   MTPA        70    45     4.9E-02    0.000    0.136     F
 46   LIMO        71    46     7.0E-02    0.000    0.136     F
 47   MTPO        72    47     4.9E-02    0.000    0.136     F
 48   SOAS        74    48     0.0E+00    0.000    0.150     T
 49   EOH         75    49     1.9E+02    0.000    0.046     F
 50   MGLY        76    50     3.7E+03    1.000    0.072     F
 51   GLYX        77    51     3.6E+05    1.000    0.058     F
 52   ACTA        78    52     4.1E+03    1.000    0.060     F
 53   HPALD       79    53     4.0E+04    0.000    0.116     F
 54   DHDN        80    54     2.0E+06    1.000    0.147     F
 55   ETHLN       81    55     2.0E+06    1.000    0.147     F
 56   HCOOH       82    56     8.9E+03    1.000    0.046     F
 57   IEPOXA      83    57     8.0E+07    1.000    0.118     F
 58   IEPOXB      84    58     8.0E+07    1.000    0.118     F
 59   IEPOXD      85    59     8.0E+07    1.000    0.118     F
 60   ISN1        86    60     2.0E+06    1.000    0.147     F
 61   RIPA        87    61     1.7E+06    1.000    0.118     F
 62   RIPB        88    62     1.7E+06    1.000    0.118     F
 63   RIPD        89    63     1.7E+06    1.000    0.118     F
 64   IMAE        90    64     1.2E+05    1.000    0.102     F
 65   SOAIE       91    65     0.0E+00    0.000    0.118     T
 66   SOAME       92    66     0.0E+00    0.000    0.102     T
 67   SOAGX       93    67     0.0E+00    0.000    0.058     T
 68   SOAMG       94    68     0.0E+00    0.000    0.072     T
 69   LVOC        95    69     1.0E+08    1.000    0.154     F
 70   LVOCOA      96    70     0.0E+00    0.000    0.154     T
 71   ISN1OG      97    71     2.3E+04    1.000    0.226     F
 72   ISN1OA      98    72     0.0E+00    0.000    0.226     T
 73   MONITS      99    73     2.0E+06    1.000    0.147     F
 74   MONITU     100    74     2.0E+06    1.000    0.147     F
 75   HONIT      101    75     2.0E+06    1.000    0.147     F
 76   IONITA     102    76     0.0E+00    0.000    0.014     T
 77   MONITA     103    77     0.0E+00    0.000    0.014     T
 78   INDIOL     104    78     0.0E+00    0.000    0.102     T
 79   IPMN       105    79     3.6E+00    1.000    0.121     F
 80   HC187      106    80     1.0E+14    0.000    0.063     F
 81   HCl        111    81     2.0E+13    0.000    0.036     F
 82   HOCl       129    82     6.5E+02    0.000    0.052     F
 83   ClNO3      130    83     1.0E+20    0.000    0.097     F
 84   BrSALA     137    84     0.0E+00    0.000    0.080     T
 85   BrSALC     138    85     0.0E+00    0.000    0.080     T
 86   HOI        145    86     1.5E+04    0.000    0.144     F
 87   I2         146    87     2.7E+00    0.000    0.254     F
 88   IBr        147    88     2.4E+01    0.000    0.207     F
 89   ICl        148    89     1.1E+02    0.000    0.162     F
 90   HI         151    90     2.4E+16    0.000    0.128     F
 91   IONO       154    91     3.0E-01    0.000    0.173     F
 92   IONO2      155    92     1.0E+20    0.000    0.189     F
 93   I2O2       156    93     1.0E+20    0.000    0.286     F
 94   I2O3       157    94     1.0E+20    0.000    0.302     F
 95   I2O4       158    95     1.0E+20    0.000    0.318     F
 96   ISALA      159    96     0.0E+00    0.000    0.127     T
 97   ISALC      160    97     0.0E+00    0.000    0.127     T
 98   AERI       161    98     0.0E+00    0.000    0.127     T
 99   pFe        162    99     0.0E+00    0.000    0.056     T
%%%%%%%%%%%%%%%%%%%%%%%%%%%%%%%%%%%%%%%%%%%%%%%%%%%%%%%%%%%%%%%%%%%%%%%%%%%%%%%
%% Opening file  : Olson_2001_Drydep_Inputs.nc
%%  in directory : /home/ubuntu/ExtData/CHEM_INPUTS/Olson_Land_Map_201203/
%%
%% Successfully read DRYCOEFF [1]
%% Successfully read IOLSON [1]
%% Successfully read IDEP [1]
%% Successfully read IWATER [1]
%% Successfully read IZO [Default roughness heights for each Olson land type]
%% Successfully read IDRYDEP [1]
%% Successfully read IRI [s m-1]
%% Successfully read IRLU [s m-1]
%% Successfully read IRAC [s m-1]
%% Successfully read IRGSS [s m-1]
%% Successfully read IRGSO [s m-1]
%% Successfully read IRCLS [s m-1]
%% Successfully read IRCLO [s m-1]
%% Successfully read IVSMAX [1e-2 cm s-1]
%% Successfully closed file!
%%%%%%%%%%%%%%%%%%%%%%%%%%%%%%%%%%%%%%%%%%%%%%%%%%%%%%%%%%%%%%%%%%%%%%%%%%%%%%%

INIT_WETSCAV: List of soluble species:

  #             Name  Species Mol Wt  Henry K0  Henry CR  Henry pKa
                        ID    g/mol    M/atm      K         1
----------------------------------------------------------------------
  1             HNO3     7     63.0  8.30E+04  7.40E+03     -    
  2             H2O2     8     34.0  8.30E+04  7.40E+03     -    
  3             ALD2    11     12.0  1.10E+01  6.30E+03     -    
  4             CH2O    20     30.0  3.00E+03  7.20E+03     -    
  5               MP    24     48.0  3.10E+02  5.20E+03     -    
  6              SO2    26     64.0     -         -         -    
  7              SO4    27     96.0     -         -         -    
  8             SO4s    28     31.4     -         -         -    
  9              MSA    29     96.0     -         -         -    
 10              NH3    30     17.0  3.30E+06  4.10E+03     -    
 11              NH4    31     18.0     -         -         -    
 12              NIT    32     62.0     -         -         -    
 13             NITs    33     31.4     -         -         -    
 14             BCPI    34     12.0     -         -         -    
 15             OCPI    35     12.0     -         -         -    
[...]
HEMCO: Opening /home/ubuntu/ExtData/GEOS_2x2.5/GEOS_FP/2016/07/GEOSFP.20160731.A3dyn.2x25.nc
HEMCO: Opening /home/ubuntu/ExtData/GEOS_2x2.5/GEOS_FP/2016/07/GEOSFP.20160731.A3mstC.2x25.nc
HEMCO: Opening /home/ubuntu/ExtData/GEOS_2x2.5/GEOS_FP/2016/07/GEOSFP.20160731.A3mstE.2x25.nc
HEMCO: Opening /home/ubuntu/ExtData/GEOS_2x2.5/GEOS_FP/2016/07/GEOSFP.20160731.I3.2x25.nc
     - Found all A1     met fields for 2016/07/31 21:30
     - Found all A3cld  met fields for 2016/07/31 22:30
     - Found all A3dyn  met fields for 2016/07/31 22:30
     - Found all A3mstC met fields for 2016/07/31 22:30
     - Found all A3mstE met fields for 2016/07/31 22:30
     - Found all I3     met fields for 2016/08/01 00:00
     - DO_STRAT_CHEM: Linearized strat chemistry at 2016/07/31 21:00
     - LINOZ_CHEM3: Doing LINOZ
---> DATE: 2016/07/31  UTC: 21:10  X-HRS:    741.166687
---> DATE: 2016/07/31  UTC: 21:20  X-HRS:    741.333313
     - DO_STRAT_CHEM: Linearized strat chemistry at 2016/07/31 21:20
     - LINOZ_CHEM3: Doing LINOZ
---> DATE: 2016/07/31  UTC: 21:30  X-HRS:    741.500000
---> DATE: 2016/07/31  UTC: 21:40  X-HRS:    741.666687
     - DO_STRAT_CHEM: Linearized strat chemistry at 2016/07/31 21:40
     - LINOZ_CHEM3: Doing LINOZ
---> DATE: 2016/07/31  UTC: 21:50  X-HRS:    741.833313
---> DATE: 2016/07/31  UTC: 22:00  X-HRS:    742.000000
HEMCO: Opening /home/ubuntu/ExtData/GEOS_2x2.5/GEOS_FP/2016/07/GEOSFP.20160731.A1.2x25.nc
HEMCO: Opening /home/ubuntu/ExtData/GEOS_2x2.5/GEOS_FP/2016/07/GEOSFP.20160731.A3cld.2x25.nc
HEMCO: Opening /home/ubuntu/ExtData/GEOS_2x2.5/GEOS_FP/2016/07/GEOSFP.20160731.A3dyn.2x25.nc
HEMCO: Opening /home/ubuntu/ExtData/GEOS_2x2.5/GEOS_FP/2016/07/GEOSFP.20160731.A3mstC.2x25.nc
HEMCO: Opening /home/ubuntu/ExtData/GEOS_2x2.5/GEOS_FP/2016/07/GEOSFP.20160731.A3mstE.2x25.nc
HEMCO: Opening /home/ubuntu/ExtData/GEOS_2x2.5/GEOS_FP/2016/07/GEOSFP.20160731.I3.2x25.nc
     - Found all A1     met fields for 2016/07/31 22:30
     - DO_STRAT_CHEM: Linearized strat chemistry at 2016/07/31 22:00
     - LINOZ_CHEM3: Doing LINOZ
---> DATE: 2016/07/31  UTC: 22:10  X-HRS:    742.166687
---> DATE: 2016/07/31  UTC: 22:20  X-HRS:    742.333313
     - DO_STRAT_CHEM: Linearized strat chemistry at 2016/07/31 22:20
     - LINOZ_CHEM3: Doing LINOZ
---> DATE: 2016/07/31  UTC: 22:30  X-HRS:    742.500000
---> DATE: 2016/07/31  UTC: 22:40  X-HRS:    742.666687
     - DO_STRAT_CHEM: Linearized strat chemistry at 2016/07/31 22:40
     - LINOZ_CHEM3: Doing LINOZ
---> DATE: 2016/07/31  UTC: 22:50  X-HRS:    742.833313
---> DATE: 2016/07/31  UTC: 23:00  X-HRS:    743.000000
HEMCO: Opening /home/ubuntu/ExtData/GEOS_2x2.5/GEOS_FP/2016/07/GEOSFP.20160731.A1.2x25.nc
HEMCO: Opening /home/ubuntu/ExtData/GEOS_2x2.5/GEOS_FP/2016/07/GEOSFP.20160731.A3cld.2x25.nc
HEMCO: Opening /home/ubuntu/ExtData/GEOS_2x2.5/GEOS_FP/2016/07/GEOSFP.20160731.A3dyn.2x25.nc
HEMCO: Opening /home/ubuntu/ExtData/GEOS_2x2.5/GEOS_FP/2016/07/GEOSFP.20160731.A3mstC.2x25.nc
HEMCO: Opening /home/ubuntu/ExtData/GEOS_2x2.5/GEOS_FP/2016/07/GEOSFP.20160731.A3mstE.2x25.nc
HEMCO: Opening /home/ubuntu/ExtData/GEOS_2x2.5/GEOS_FP/2016/07/GEOSFP.20160731.I3.2x25.nc
     - Found all A1     met fields for 2016/07/31 23:30
     - DO_STRAT_CHEM: Linearized strat chemistry at 2016/07/31 23:00
     - LINOZ_CHEM3: Doing LINOZ
---> DATE: 2016/07/31  UTC: 23:10  X-HRS:    743.166687
---> DATE: 2016/07/31  UTC: 23:20  X-HRS:    743.333313
     - DO_STRAT_CHEM: Linearized strat chemistry at 2016/07/31 23:20
     - LINOZ_CHEM3: Doing LINOZ
---> DATE: 2016/07/31  UTC: 23:30  X-HRS:    743.500000
---> DATE: 2016/07/31  UTC: 23:40  X-HRS:    743.666687
     - DO_STRAT_CHEM: Linearized strat chemistry at 2016/07/31 23:40
     - LINOZ_CHEM3: Doing LINOZ
---> DATE: 2016/07/31  UTC: 23:50  X-HRS:    743.833313
     - Creating file for SpeciesConc; reference = 20160731 000000
        with filename = OutputDir/GEOSChem.SpeciesConc.20160731_0000z.nc4
---> DATE: 2016/08/01  UTC: 00:00  X-HRS:    744.000000
HEMCO: Opening /home/ubuntu/ExtData/HEMCO/NH3/v2014-07/NH3_geos.4x5.nc
HEMCO: Opening /home/ubuntu/ExtData/HEMCO/NH3/v2018-04/NH3_Arctic_seabirds.nc
HEMCO: Opening /home/ubuntu/ExtData/HEMCO/CEDS/v2018-08/2014/NO-em-anthro_CMIP_CEDS_2014.nc
HEMCO: Opening /home/ubuntu/ExtData/HEMCO/CEDS/v2018-08/2014/CO-em-anthro_CMIP_CEDS_2014.nc
HEMCO: Opening /home/ubuntu/ExtData/HEMCO/CEDS/v2018-08/2014/SO2-em-anthro_CMIP_CEDS_2014.nc
HEMCO: Opening /home/ubuntu/ExtData/HEMCO/CEDS/v2018-08/2014/NH3-em-anthro_CMIP_CEDS_2014.nc
HEMCO: Opening /home/ubuntu/ExtData/HEMCO/CEDS/v2018-08/2014/BC-em-anthro_CMIP_CEDS_2014.nc
HEMCO: Opening /home/ubuntu/ExtData/HEMCO/CEDS/v2018-08/2014/OC-em-anthro_CMIP_CEDS_2014.nc
HEMCO: Opening /home/ubuntu/ExtData/HEMCO/CEDS/v2018-08/2014/EOH-em-anthro_CMIP_CEDS_2014.nc
HEMCO: Opening /home/ubuntu/ExtData/HEMCO/CEDS/v2018-08/2014/C2H6-em-anthro_CMIP_CEDS_2014.nc
HEMCO: Opening /home/ubuntu/ExtData/HEMCO/CEDS/v2018-08/2014/C3H8-em-anthro_CMIP_CEDS_2014.nc
HEMCO: Opening /home/ubuntu/ExtData/HEMCO/CEDS/v2018-08/2014/ALK4_butanes-em-anthro_CMIP_CEDS_2014.nc
HEMCO: Opening /home/ubuntu/ExtData/HEMCO/CEDS/v2018-08/2014/ALK4_pentanes-em-anthro_CMIP_CEDS_2014.nc
HEMCO: Opening /home/ubuntu/ExtData/HEMCO/CEDS/v2018-08/2014/ALK4_hexanes-em-anthro_CMIP_CEDS_2014.nc
HEMCO: Opening /home/ubuntu/ExtData/HEMCO/CEDS/v2018-08/2014/PRPE-em-anthro_CMIP_CEDS_2014.nc
HEMCO: Opening /home/ubuntu/ExtData/HEMCO/CEDS/v2018-08/2014/BENZ-em-anthro_CMIP_CEDS_2014.nc
HEMCO: Opening /home/ubuntu/ExtData/HEMCO/CEDS/v2018-08/2014/TOLU-em-anthro_CMIP_CEDS_2014.nc
HEMCO: Opening /home/ubuntu/ExtData/HEMCO/CEDS/v2018-08/2014/XYLE-em-anthro_CMIP_CEDS_2014.nc
HEMCO: Opening /home/ubuntu/ExtData/HEMCO/CEDS/v2018-08/2014/CH2O-em-anthro_CMIP_CEDS_2014.nc
HEMCO: Opening /home/ubuntu/ExtData/HEMCO/CEDS/v2018-08/2014/ALD2-em-anthro_CMIP_CEDS_2014.nc
HEMCO: Opening /home/ubuntu/ExtData/HEMCO/CEDS/v2018-08/2014/MEK-em-anthro_CMIP_CEDS_2014.nc
HEMCO: Opening /home/ubuntu/ExtData/HEMCO/CEDS/v2018-08/2014/HCOOH-em-anthro_CMIP_CEDS_2014.nc
HEMCO: Opening /home/ubuntu/ExtData/HEMCO/RETRO/v2014-07/orig_kgC/ketones_kgC.nc
HEMCO: Opening /home/ubuntu/ExtData/HEMCO/C2H6_2010/v2017-05/C2H6_global_anth_biof.201008.nc
HEMCO: Opening /home/ubuntu/ExtData/HEMCO/NEI2011/v2017-02-MM/08/NEI11_0.1x0.1_201108_monmean.nc
HEMCO: Opening /home/ubuntu/ExtData/HEMCO/NEI2011/v2017-02-MM/08/NEI11_0.1x0.1_201108_monmean_egu.nc
HEMCO: Opening /home/ubuntu/ExtData/HEMCO/NEI2011/v2017-02-MM/08/NEI11_0.1x0.1_201108_monmean_egupk.nc
HEMCO: Opening /home/ubuntu/ExtData/HEMCO/NEI2011/v2017-02-MM/08/NEI11_0.1x0.1_201108_monmean_oilgas.nc
HEMCO: Opening /home/ubuntu/ExtData/HEMCO/NEI2011/v2017-02-MM/08/NEI11_0.1x0.1_201108_monmean_othpt.nc
HEMCO: Opening /home/ubuntu/ExtData/HEMCO/NEI2011/v2017-02-MM/08/NEI11_0.1x0.1_201108_monmean_ptnonipm.nc
HEMCO: Opening /home/ubuntu/ExtData/HEMCO/MIX/v2015-03/MIX_Asia_NO.generic.025x025.nc
HEMCO: Opening /home/ubuntu/ExtData/HEMCO/MIX/v2015-03/MIX_Asia_CO.generic.025x025.nc
HEMCO: Opening /home/ubuntu/ExtData/HEMCO/MIX/v2015-03/MIX_Asia_SO2.generic.025x025.nc
HEMCO: Opening /home/ubuntu/ExtData/HEMCO/MIX/v2015-03/MIX_Asia_NH3.generic.025x025.nc
HEMCO: Opening /home/ubuntu/ExtData/HEMCO/MIX/v2015-03/MIX_Asia_CH2O.generic.025x025.nc
HEMCO: Opening /home/ubuntu/ExtData/HEMCO/MIX/v2015-03/MIX_Asia_C3H8.generic.025x025.nc
HEMCO: Opening /home/ubuntu/ExtData/HEMCO/MIX/v2015-03/MIX_Asia_ALK4.generic.025x025.nc
HEMCO: Opening /home/ubuntu/ExtData/HEMCO/MIX/v2015-03/MIX_Asia_ACET.generic.025x025.nc
HEMCO: Opening /home/ubuntu/ExtData/HEMCO/MIX/v2015-03/MIX_Asia_MEK.generic.025x025.nc
HEMCO: Opening /home/ubuntu/ExtData/HEMCO/MIX/v2015-03/MIX_Asia_ALD2.generic.025x025.nc
HEMCO: Opening /home/ubuntu/ExtData/HEMCO/MIX/v2015-03/MIX_Asia_PRPE.generic.025x025.nc
HEMCO: Opening /home/ubuntu/ExtData/HEMCO/IODINE/v2017-09/CH3I_monthly_emissions_Ordonez_2012_COARDS.nc
HEMCO: Opening /home/ubuntu/ExtData/HEMCO/IODINE/v2017-09/CH2I2_monthly_emissions_Ordonez_2012_COARDS.nc
HEMCO: Opening /home/ubuntu/ExtData/HEMCO/IODINE/v2017-09/CH2ICl_monthly_emissions_Ordonez_2012_COARDS.nc
HEMCO: Opening /home/ubuntu/ExtData/HEMCO/IODINE/v2017-09/CH2IBr_monthly_emissions_Ordonez_2012_COARDS.nc
HEMCO: Opening /home/ubuntu/ExtData/HEMCO/CEDS/v2018-08/2014/CO-em-anthro_CMIP_CEDS_2014.nc
HEMCO: Opening /home/ubuntu/ExtData/HEMCO/CEDS/v2018-08/2014/SO2-em-anthro_CMIP_CEDS_2014.nc
HEMCO: Opening /home/ubuntu/ExtData/HEMCO/CEDS/v2018-08/2014/NH3-em-anthro_CMIP_CEDS_2014.nc
HEMCO: Opening /home/ubuntu/ExtData/HEMCO/CEDS/v2018-08/2014/BC-em-anthro_CMIP_CEDS_2014.nc
HEMCO: Opening /home/ubuntu/ExtData/HEMCO/CEDS/v2018-08/2014/OC-em-anthro_CMIP_CEDS_2014.nc
HEMCO: Opening /home/ubuntu/ExtData/HEMCO/CEDS/v2018-08/2014/EOH-em-anthro_CMIP_CEDS_2014.nc
HEMCO: Opening /home/ubuntu/ExtData/HEMCO/CEDS/v2018-08/2014/C2H6-em-anthro_CMIP_CEDS_2014.nc
HEMCO: Opening /home/ubuntu/ExtData/HEMCO/CEDS/v2018-08/2014/C3H8-em-anthro_CMIP_CEDS_2014.nc
HEMCO: Opening /home/ubuntu/ExtData/HEMCO/CEDS/v2018-08/2014/ALK4_butanes-em-anthro_CMIP_CEDS_2014.nc
HEMCO: Opening /home/ubuntu/ExtData/HEMCO/CEDS/v2018-08/2014/ALK4_pentanes-em-anthro_CMIP_CEDS_2014.nc
HEMCO: Opening /home/ubuntu/ExtData/HEMCO/CEDS/v2018-08/2014/ALK4_hexanes-em-anthro_CMIP_CEDS_2014.nc
HEMCO: Opening /home/ubuntu/ExtData/HEMCO/CEDS/v2018-08/2014/PRPE-em-anthro_CMIP_CEDS_2014.nc
HEMCO: Opening /home/ubuntu/ExtData/HEMCO/CEDS/v2018-08/2014/BENZ-em-anthro_CMIP_CEDS_2014.nc
HEMCO: Opening /home/ubuntu/ExtData/HEMCO/CEDS/v2018-08/2014/TOLU-em-anthro_CMIP_CEDS_2014.nc
HEMCO: Opening /home/ubuntu/ExtData/HEMCO/CEDS/v2018-08/2014/XYLE-em-anthro_CMIP_CEDS_2014.nc
HEMCO: Opening /home/ubuntu/ExtData/HEMCO/CEDS/v2018-08/2014/CH2O-em-anthro_CMIP_CEDS_2014.nc
HEMCO: Opening /home/ubuntu/ExtData/HEMCO/CEDS/v2018-08/2014/ALD2-em-anthro_CMIP_CEDS_2014.nc
HEMCO: Opening /home/ubuntu/ExtData/HEMCO/CEDS/v2018-08/2014/MEK-em-anthro_CMIP_CEDS_2014.nc
HEMCO: Opening /home/ubuntu/ExtData/HEMCO/CEDS/v2018-08/2014/HCOOH-em-anthro_CMIP_CEDS_2014.nc
HEMCO: Opening /home/ubuntu/ExtData/HEMCO/CEDS/v2018-08/2014/NO-em-anthro_CMIP_CEDS_2014.nc
HEMCO: Opening /home/ubuntu/ExtData/HEMCO/AEIC/v2015-01/AEIC.47L.gen.1x1.nc
HEMCO: Opening /home/ubuntu/ExtData/HEMCO/ALD2/v2017-03/resp.geos.2x25.nc
HEMCO: Opening /home/ubuntu/ExtData/HEMCO/DMS/v2015-07/DMS_lana.geos.1x1.nc
HEMCO: Opening /home/ubuntu/ExtData/HEMCO/ALD2/v2017-03/ALD2_seawater.geos.2x25.nc
HEMCO: Opening /home/ubuntu/ExtData/HEMCO/LIGHTNOX/v2017-09/OTD-LIS-Local-Redist.CTH.v5.geosfp.2x25.v20170928.nc
HEMCO: Opening /home/ubuntu/ExtData/HEMCO/DUST_DEAD/v2014-07/dst_tvbds.geos.4x5.nc
HEMCO: Opening /home/ubuntu/ExtData/HEMCO/DUST_DEAD/v2018-04/PM25FINE_ECLIPSE_2015.geos.2x25.nc
HEMCO: Opening /home/ubuntu/ExtData/HEMCO/DUST_DEAD/v2018-04/PM25FINE_MEIC_2012.generic.025x025.nc
HEMCO: Opening /home/ubuntu/ExtData/HEMCO/DUST_DEAD/v2018-04/PM25FINE_IITB_2013.generic.025x025.nc
HEMCO: Opening /home/ubuntu/ExtData/HEMCO/SOA/v2014-07/NVOC.geos.1x1.nc
HEMCO: Opening /home/ubuntu/ExtData/HEMCO/GFED4/v2015-10/2016/GFED4_gen.025x025.201608.nc
HEMCO: Opening /home/ubuntu/ExtData/HEMCO/UVALBEDO/v2015-03/uvalbedo.geos.2x25.nc
HEMCO: Opening /home/ubuntu/ExtData/HEMCO/GMI/v2015-02/gmi.clim.ACET.geos5.2x25.nc
HEMCO: Opening /home/ubuntu/ExtData/HEMCO/GMI/v2015-02/gmi.clim.ACTA.geos5.2x25.nc
HEMCO: Opening /home/ubuntu/ExtData/HEMCO/GMI/v2015-02/gmi.clim.ALD2.geos5.2x25.nc
HEMCO: Opening /home/ubuntu/ExtData/HEMCO/GMI/v2015-02/gmi.clim.ALK4.geos5.2x25.nc
HEMCO: Opening /home/ubuntu/ExtData/HEMCO/GMI/v2015-02/gmi.clim.C2H6.geos5.2x25.nc
HEMCO: Opening /home/ubuntu/ExtData/HEMCO/GMI/v2015-02/gmi.clim.C3H8.geos5.2x25.nc
HEMCO: Opening /home/ubuntu/ExtData/HEMCO/GMI/v2015-02/gmi.clim.CCl4.geos5.2x25.nc
HEMCO: Opening /home/ubuntu/ExtData/HEMCO/GMI/v2015-02/gmi.clim.CF2Cl2.geos5.2x25.nc
HEMCO: Opening /home/ubuntu/ExtData/HEMCO/GMI/v2015-02/gmi.clim.CF2ClBr.geos5.2x25.nc
HEMCO: Opening /home/ubuntu/ExtData/HEMCO/GMI/v2015-02/gmi.clim.CFC113.geos5.2x25.nc
HEMCO: Opening /home/ubuntu/ExtData/HEMCO/GMI/v2015-02/gmi.clim.CFC114.geos5.2x25.nc
HEMCO: Opening /home/ubuntu/ExtData/HEMCO/GMI/v2015-02/gmi.clim.CFC115.geos5.2x25.nc
HEMCO: Opening /home/ubuntu/ExtData/HEMCO/GMI/v2015-02/gmi.clim.CFCl3.geos5.2x25.nc
HEMCO: Opening /home/ubuntu/ExtData/HEMCO/GMI/v2015-02/gmi.clim.CH2O.geos5.2x25.nc
HEMCO: Opening /home/ubuntu/ExtData/HEMCO/GMI/v2015-02/gmi.clim.CH3CCl3.geos5.2x25.nc
HEMCO: Opening /home/ubuntu/ExtData/HEMCO/GMI/v2015-02/gmi.clim.CH3Cl.geos5.2x25.nc
HEMCO: Opening /home/ubuntu/ExtData/HEMCO/GMI/v2015-02/gmi.clim.CH4.geos5.2x25.nc
HEMCO: Opening /home/ubuntu/ExtData/HEMCO/GMI/v2015-02/gmi.clim.CO.geos5.2x25.nc
HEMCO: Opening /home/ubuntu/ExtData/HEMCO/GMI/v2015-02/gmi.clim.Cl.geos5.2x25.nc
HEMCO: Opening /home/ubuntu/ExtData/HEMCO/GMI/v2015-02/gmi.clim.Cl2.geos5.2x25.nc
HEMCO: Opening /home/ubuntu/ExtData/HEMCO/GMI/v2015-02/gmi.clim.Cl2O2.geos5.2x25.nc
HEMCO: Opening /home/ubuntu/ExtData/HEMCO/GMI/v2015-02/gmi.clim.ClO.geos5.2x25.nc
HEMCO: Opening /home/ubuntu/ExtData/HEMCO/GMI/v2015-02/gmi.clim.EOH.geos5.2x25.nc
HEMCO: Opening /home/ubuntu/ExtData/HEMCO/GMI/v2015-02/gmi.clim.GLYC.geos5.2x25.nc
HEMCO: Opening /home/ubuntu/ExtData/HEMCO/GMI/v2015-02/gmi.clim.GLYX.geos5.2x25.nc
HEMCO: Opening /home/ubuntu/ExtData/HEMCO/GMI/v2015-02/gmi.clim.H2402.geos5.2x25.nc
HEMCO: Opening /home/ubuntu/ExtData/HEMCO/GMI/v2015-02/gmi.clim.H2O.geos5.2x25.nc
HEMCO: Opening /home/ubuntu/ExtData/HEMCO/GMI/v2015-02/gmi.clim.H2O2.geos5.2x25.nc
HEMCO: Opening /home/ubuntu/ExtData/HEMCO/GMI/v2015-02/gmi.clim.HAC.geos5.2x25.nc
HEMCO: Opening /home/ubuntu/ExtData/HEMCO/GMI/v2015-02/gmi.clim.HCFC141b.geos5.2x25.nc
HEMCO: Opening /home/ubuntu/ExtData/HEMCO/GMI/v2015-02/gmi.clim.HCFC142b.geos5.2x25.nc
HEMCO: Opening /home/ubuntu/ExtData/HEMCO/GMI/v2015-02/gmi.clim.HCFC22.geos5.2x25.nc
HEMCO: Opening /home/ubuntu/ExtData/HEMCO/GMI/v2015-02/gmi.clim.HCOOH.geos5.2x25.20170108.nc
HEMCO: Opening /home/ubuntu/ExtData/HEMCO/GMI/v2015-02/gmi.clim.HCl.geos5.2x25.nc
HEMCO: Opening /home/ubuntu/ExtData/HEMCO/GMI/v2015-02/gmi.clim.HNO2.geos5.2x25.nc
HEMCO: Opening /home/ubuntu/ExtData/HEMCO/GMI/v2015-02/gmi.clim.HNO3.geos5.2x25.nc
HEMCO: Opening /home/ubuntu/ExtData/HEMCO/GMI/v2015-02/gmi.clim.HNO4.geos5.2x25.nc
HEMCO: Opening /home/ubuntu/ExtData/HEMCO/GMI/v2015-02/gmi.clim.HOCl.geos5.2x25.nc
HEMCO: Opening /home/ubuntu/ExtData/HEMCO/GMI/v2015-02/gmi.clim.ISN1.geos5.2x25.nc
HEMCO: Opening /home/ubuntu/ExtData/HEMCO/GMI/v2015-02/gmi.clim.ISOP.geos5.2x25.nc
HEMCO: Opening /home/ubuntu/ExtData/HEMCO/GMI/v2015-02/gmi.clim.MACR.geos5.2x25.nc
HEMCO: Opening /home/ubuntu/ExtData/HEMCO/GMI/v2015-02/gmi.clim.MAP.geos5.2x25.nc
HEMCO: Opening /home/ubuntu/ExtData/HEMCO/GMI/v2015-02/gmi.clim.MEK.geos5.2x25.nc
HEMCO: Opening /home/ubuntu/ExtData/HEMCO/GMI/v2015-02/gmi.clim.MGLY.geos5.2x25.nc
HEMCO: Opening /home/ubuntu/ExtData/HEMCO/GMI/v2015-02/gmi.clim.MP.geos5.2x25.nc
HEMCO: Opening /home/ubuntu/ExtData/HEMCO/GMI/v2015-02/gmi.clim.MVK.geos5.2x25.nc
HEMCO: Opening /home/ubuntu/ExtData/HEMCO/GMI/v2015-02/gmi.clim.N2O.geos5.2x25.nc
HEMCO: Opening /home/ubuntu/ExtData/HEMCO/GMI/v2015-02/gmi.clim.N2O5.geos5.2x25.nc
HEMCO: Opening /home/ubuntu/ExtData/HEMCO/GMI/v2015-02/gmi.clim.NO.geos5.2x25.nc
HEMCO: Opening /home/ubuntu/ExtData/HEMCO/GMI/v2015-02/gmi.clim.NO2.geos5.2x25.nc
HEMCO: Opening /home/ubuntu/ExtData/HEMCO/GMI/v2015-02/gmi.clim.NO3.geos5.2x25.nc
HEMCO: Opening /home/ubuntu/ExtData/HEMCO/GMI/v2015-02/gmi.clim.O3.geos5.2x25.nc
HEMCO: Opening /home/ubuntu/ExtData/HEMCO/GMI/v2015-02/gmi.clim.OClO.geos5.2x25.nc
HEMCO: Opening /home/ubuntu/ExtData/HEMCO/GMI/v2015-02/gmi.clim.PAN.geos5.2x25.nc
HEMCO: Opening /home/ubuntu/ExtData/HEMCO/GMI/v2015-02/gmi.clim.NPMN.geos5.2x25.nc
HEMCO: Opening /home/ubuntu/ExtData/HEMCO/GMI/v2015-02/gmi.clim.IPMN.geos5.2x25.nc
HEMCO: Opening /home/ubuntu/ExtData/HEMCO/GMI/v2015-02/gmi.clim.PPN.geos5.2x25.nc
HEMCO: Opening /home/ubuntu/ExtData/HEMCO/GMI/v2015-02/gmi.clim.PRPE.geos5.2x25.nc
HEMCO: Opening /home/ubuntu/ExtData/HEMCO/GMI/v2015-02/gmi.clim.R4N2.geos5.2x25.nc
HEMCO: Opening /home/ubuntu/ExtData/HEMCO/GMI/v2015-02/gmi.clim.RCHO.geos5.2x25.nc
HEMCO: Opening /home/ubuntu/ExtData/HEMCO/GMI/v2015-02/gmi.clim.RIPA.geos5.2x25.nc
HEMCO: Opening /home/ubuntu/ExtData/HEMCO/GMI/v2015-02/gmi.clim.RIPB.geos5.2x25.nc
HEMCO: Opening /home/ubuntu/ExtData/HEMCO/GMI/v2015-02/gmi.clim.RIPD.geos5.2x25.nc
HEMCO: Opening /home/ubuntu/ExtData/HEMCO/GMI/v2015-02/gmi.clim.OH.geos5.2x25.nc
HEMCO: Opening /home/ubuntu/ExtData/HEMCO/NOAA_GMD/v2018-01/monthly.gridded.surface.methane.1979-2020.1x1.nc
HEMCO: Opening /home/ubuntu/ExtData/HEMCO/GEIA/v2014-07/GEIA_monthscal.generic.1x1.nc
HEMCO: Opening /home/ubuntu/ExtData/HEMCO/EMEP/v2015-03/EMEP.Seasonal.geos.1x1.nc
HEMCO: Opening /home/ubuntu/ExtData/HEMCO/BROMINE/v2015-02/BromoCarb_Season.nc
HEMCO: Opening /home/ubuntu/ExtData/HEMCO/EDGARv43/v2016-11/EDGAR_v43.Seasonal.1x1.nc
HEMCO: Opening /home/ubuntu/ExtData/HEMCO/NEI2005/v2014-09/scaling/NEI99.dow.geos.1x1.nc
HEMCO: Opening /home/ubuntu/ExtData/HEMCO/VOLCANO/v2015-02/2009/volc_so2_gen.1x1.47L.200908.nc
HEMCO: Opening /home/ubuntu/ExtData/HEMCO/SOILNOX/v2014-07/soilNOx.fert_res.generic.05x05.nc
HEMCO: Opening /home/ubuntu/ExtData/GEOS_2x2.5/GEOS_FP/2016/07/GEOSFP.20160731.A1.2x25.nc
HEMCO: Opening /home/ubuntu/ExtData/GEOS_2x2.5/GEOS_FP/2016/07/GEOSFP.20160731.A3cld.2x25.nc
HEMCO: Opening /home/ubuntu/ExtData/GEOS_2x2.5/GEOS_FP/2016/07/GEOSFP.20160731.A3dyn.2x25.nc
HEMCO: Opening /home/ubuntu/ExtData/GEOS_2x2.5/GEOS_FP/2016/07/GEOSFP.20160731.A3mstC.2x25.nc
HEMCO: Opening /home/ubuntu/ExtData/GEOS_2x2.5/GEOS_FP/2016/07/GEOSFP.20160731.A3mstE.2x25.nc
HEMCO: Opening /home/ubuntu/ExtData/GEOS_2x2.5/GEOS_FP/2016/07/GEOSFP.20160731.I3.2x25.nc

===============================================================================
 ND23: Mass-Weighted OH Concentration
 Mean OH =    12.523117048053523       [1e5 molec/cm3]
===============================================================================
     - CLEANUP: deallocating arrays now...
 
===============================================================================
G E O S - C H E M   T I M E R S
 
  Timer name                       DD-hh:mm:ss.SSS     Total Seconds
-------------------------------------------------------------------------------
  GEOS-Chem                     :  00-20:56:07.023         75367.023
  Initialization                :  00-00:00:34.268            34.269
  Timesteps                     :  00-20:55:23.597         75323.598
  HEMCO                         :  00-06:57:07.724         25027.725
  All chemistry                 :  00-06:47:27.706         24447.707
  => Gas-phase chem             :  00-04:46:53.251         17213.252
  => FAST-JX photolysis         :  00-00:38:25.545          2305.546
  => All aerosol chem           :  00-01:10:06.091          4206.092
  => Strat chem                 :  00-00:03:08.992           188.992
  => Unit conversions           :  00-01:14:42.254          4482.254
  Transport                     :  00-02:00:15.666          7215.667
  Convection                    :  00-01:47:36.844          6456.844
  Boundary layer mixing         :  00-01:41:14.823          6074.823
  Dry deposition                :  00-00:01:15.929            75.929
  Wet deposition                :  00-00:40:59.180          2459.181
  RRTMG                         :  >>>>> THE TIMER DID NOT RUN <<<<<
  All diagnostics               :  00-00:36:57.003          2217.003
  => HEMCO diagnostics          :  00-00:00:00.011             0.012
  => Binary punch diagnostics   :  00-00:00:00.001             0.002
  => History (netCDF diags)     :  00-00:37:05.853          2225.854
  Input                         :  00-00:22:57.383          1377.384
  Output                        :  00-00:36:57.538          2217.538
  Finalization                  :  00-00:00:09.148             9.148

===> SIMULATION END TIME: 2018/12/20 15:29 <===


**************   E N D   O F   G E O S -- C H E M   **************
